
---------- Begin Simulation Statistics ----------
sim_seconds                                  0.000076                      
sim_ticks                                    76495000                      
final_tick                                   76495000                      
sim_freq                                 1000000000000                      
host_inst_rate                                  80702                      
host_op_rate                                    80884                      
host_tick_rate                               47002421                      
host_mem_usage                                 390464                      
host_seconds                                     1.62                      
sim_insts                                      131335                      
sim_ops                                        131635                      
system.voltage_domain.voltage                       1                      
system.clk_domain.clock                          1000                      
system.physmem.pwrStateResidencyTicks::UNDEFINED     76495000                      
system.physmem.bytes_read::cpu.inst            610764                      
system.physmem.bytes_read::cpu.data            214930                      
system.physmem.bytes_read::total               825694                      
system.physmem.bytes_inst_read::cpu.inst       610764                      
system.physmem.bytes_inst_read::total          610764                      
system.physmem.bytes_written::cpu.data         137082                      
system.physmem.bytes_written::total            137082                      
system.physmem.num_reads::cpu.inst             152691                      
system.physmem.num_reads::cpu.data              31669                      
system.physmem.num_reads::total                184360                      
system.physmem.num_writes::cpu.data             20183                      
system.physmem.num_writes::total                20183                      
system.physmem.bw_read::cpu.inst           7984364991                      
system.physmem.bw_read::cpu.data           2809726125                      
system.physmem.bw_read::total             10794091117                      
system.physmem.bw_inst_read::cpu.inst      7984364991                      
system.physmem.bw_inst_read::total         7984364991                      
system.physmem.bw_write::cpu.data          1792038695                      
system.physmem.bw_write::total             1792038695                      
system.physmem.bw_total::cpu.inst          7984364991                      
system.physmem.bw_total::cpu.data          4601764821                      
system.physmem.bw_total::total            12586129812                      
system.pwrStateResidencyTicks::UNDEFINED     76495000                      
system.cpu_clk_domain.clock                       500                      
system.cpu.dtb.read_hits                            0                      
system.cpu.dtb.read_misses                          0                      
system.cpu.dtb.read_accesses                        0                      
system.cpu.dtb.write_hits                           0                      
system.cpu.dtb.write_misses                         0                      
system.cpu.dtb.write_accesses                       0                      
system.cpu.dtb.hits                                 0                      
system.cpu.dtb.misses                               0                      
system.cpu.dtb.accesses                             0                      
system.cpu.itb.read_hits                            0                      
system.cpu.itb.read_misses                          0                      
system.cpu.itb.read_accesses                        0                      
system.cpu.itb.write_hits                           0                      
system.cpu.itb.write_misses                         0                      
system.cpu.itb.write_accesses                       0                      
system.cpu.itb.hits                                 0                      
system.cpu.itb.misses                               0                      
system.cpu.itb.accesses                             0                      
system.cpu.workload.numSyscalls                    62                      
system.cpu.pwrStateResidencyTicks::ON        76495000                      
system.cpu.numCycles                           152991                      
system.cpu.numWorkItemsStarted                      0                      
system.cpu.numWorkItemsCompleted                    0                      
system.cpu.committedInsts                      131335                      
system.cpu.committedOps                        131635                      
system.cpu.num_int_alu_accesses                130910                      
system.cpu.num_fp_alu_accesses                     40                      
system.cpu.num_vec_alu_accesses                     0                      
system.cpu.num_func_calls                        7703                      
system.cpu.num_conditional_control_insts        21038                      
system.cpu.num_int_insts                       130910                      
system.cpu.num_fp_insts                            40                      
system.cpu.num_vec_insts                            0                      
system.cpu.num_int_register_reads              163945                      
system.cpu.num_int_register_writes              86998                      
system.cpu.num_fp_register_reads                   31                      
system.cpu.num_fp_register_writes                  16                      
system.cpu.num_vec_register_reads                   0                      
system.cpu.num_vec_register_writes                  0                      
system.cpu.num_mem_refs                         51852                      
system.cpu.num_load_insts                       31669                      
system.cpu.num_store_insts                      20183                      
system.cpu.num_idle_cycles                         -0                      
system.cpu.num_busy_cycles                     152991                      
system.cpu.not_idle_fraction                        1                      
system.cpu.idle_fraction                           -0                      
system.cpu.Branches                             28741                      
system.cpu.op_class::No_OpClass                    66      0.05%      0.05%
system.cpu.op_class::IntAlu                     79604     60.44%     60.49%
system.cpu.op_class::IntMult                      164      0.12%     60.61%
system.cpu.op_class::IntDiv                         4      0.00%     60.62%
system.cpu.op_class::FloatAdd                       0      0.00%     60.62%
system.cpu.op_class::FloatCmp                       3      0.00%     60.62%
system.cpu.op_class::FloatCvt                       2      0.00%     60.62%
system.cpu.op_class::FloatMult                      0      0.00%     60.62%
system.cpu.op_class::FloatMultAcc                   0      0.00%     60.62%
system.cpu.op_class::FloatDiv                       0      0.00%     60.62%
system.cpu.op_class::FloatMisc                      2      0.00%     60.62%
system.cpu.op_class::FloatSqrt                      0      0.00%     60.62%
system.cpu.op_class::SimdAdd                        0      0.00%     60.62%
system.cpu.op_class::SimdAddAcc                     0      0.00%     60.62%
system.cpu.op_class::SimdAlu                        0      0.00%     60.62%
system.cpu.op_class::SimdCmp                        0      0.00%     60.62%
system.cpu.op_class::SimdCvt                        0      0.00%     60.62%
system.cpu.op_class::SimdMisc                       0      0.00%     60.62%
system.cpu.op_class::SimdMult                       0      0.00%     60.62%
system.cpu.op_class::SimdMultAcc                    0      0.00%     60.62%
system.cpu.op_class::SimdShift                      0      0.00%     60.62%
system.cpu.op_class::SimdShiftAcc                   0      0.00%     60.62%
system.cpu.op_class::SimdSqrt                       0      0.00%     60.62%
system.cpu.op_class::SimdFloatAdd                   0      0.00%     60.62%
system.cpu.op_class::SimdFloatAlu                   0      0.00%     60.62%
system.cpu.op_class::SimdFloatCmp                   0      0.00%     60.62%
system.cpu.op_class::SimdFloatCvt                   0      0.00%     60.62%
system.cpu.op_class::SimdFloatDiv                   0      0.00%     60.62%
system.cpu.op_class::SimdFloatMisc                  0      0.00%     60.62%
system.cpu.op_class::SimdFloatMult                  0      0.00%     60.62%
system.cpu.op_class::SimdFloatMultAcc               0      0.00%     60.62%
system.cpu.op_class::SimdFloatSqrt                  0      0.00%     60.62%
system.cpu.op_class::MemRead                    31655     24.03%     84.66%
system.cpu.op_class::MemWrite                   20164     15.31%     99.97%
system.cpu.op_class::FloatMemRead                  14      0.01%     99.98%
system.cpu.op_class::FloatMemWrite                 19      0.01%     99.99%
system.cpu.op_class::IprAccess                      0      0.00%     99.99%
system.cpu.op_class::InstPrefetch                   0      0.00%     99.99%
system.cpu.op_class::total                     131697                      
system.membus.snoop_filter.tot_requests             0                      
system.membus.snoop_filter.hit_single_requests            0                      
system.membus.snoop_filter.hit_multi_requests            0                      
system.membus.snoop_filter.tot_snoops               0                      
system.membus.snoop_filter.hit_single_snoops            0                      
system.membus.snoop_filter.hit_multi_snoops            0                      
system.membus.pwrStateResidencyTicks::UNDEFINED     76495000                      
system.membus.trans_dist::ReadReq              184026                      
system.membus.trans_dist::ReadResp             184360                      
system.membus.trans_dist::WriteReq              19849                      
system.membus.trans_dist::WriteResp             19849                      
system.membus.trans_dist::LoadLockedReq           334                      
system.membus.trans_dist::StoreCondReq            334                      
system.membus.trans_dist::StoreCondResp           334                      
system.membus.pkt_count_system.cpu.icache_port::system.physmem.port       305382                      
system.membus.pkt_count_system.cpu.dcache_port::system.physmem.port       103704                      
system.membus.pkt_count::total                 409086                      
system.membus.pkt_size_system.cpu.icache_port::system.physmem.port       610764                      
system.membus.pkt_size_system.cpu.dcache_port::system.physmem.port       352012                      
system.membus.pkt_size::total                  962776                      
system.membus.snoops                                0                      
system.membus.snoopTraffic                          0                      
system.membus.snoop_fanout::samples            204543                      
system.membus.snoop_fanout::mean                    0                      
system.membus.snoop_fanout::stdev                  -0                      
system.membus.snoop_fanout::underflows              0      0.00%      0.00%
system.membus.snoop_fanout::0                  204543    100.00%    100.00%
system.membus.snoop_fanout::1                       0      0.00%    100.00%
system.membus.snoop_fanout::overflows               0      0.00%    100.00%
system.membus.snoop_fanout::min_value               0                      
system.membus.snoop_fanout::max_value               0                      
system.membus.snoop_fanout::total              204543                      

---------- End Simulation Statistics   ----------
