
---------- Begin Simulation Statistics ----------
sim_seconds                                  0.007509                      
sim_ticks                                     7509335                      
final_tick                                    7509335                      
sim_freq                                   1000000000                      
host_inst_rate                                  41345                      
host_op_rate                                    41471                      
host_tick_rate                                 789214                      
host_mem_usage                                 570256                      
host_seconds                                     9.51                      
sim_insts                                      393394                      
sim_ops                                        394599                      
system.voltage_domain.voltage                       1                      
system.clk_domain.clock                             1                      
system.mem_ctrls.pwrStateResidencyTicks::UNDEFINED      7509335                      
system.mem_ctrls.bytes_read::ruby.dir_cntrl0      6769024                      
system.mem_ctrls.bytes_read::total            6769024                      
system.mem_ctrls.bytes_written::ruby.dir_cntrl0      6768768                      
system.mem_ctrls.bytes_written::total         6768768                      
system.mem_ctrls.num_reads::ruby.dir_cntrl0       105766                      
system.mem_ctrls.num_reads::total              105766                      
system.mem_ctrls.num_writes::ruby.dir_cntrl0       105762                      
system.mem_ctrls.num_writes::total             105762                      
system.mem_ctrls.bw_read::ruby.dir_cntrl0    901414572                      
system.mem_ctrls.bw_read::total             901414572                      
system.mem_ctrls.bw_write::ruby.dir_cntrl0    901380481                      
system.mem_ctrls.bw_write::total            901380481                      
system.mem_ctrls.bw_total::ruby.dir_cntrl0   1802795054                      
system.mem_ctrls.bw_total::total           1802795054                      
system.mem_ctrls.readReqs                      105766                      
system.mem_ctrls.writeReqs                     105762                      
system.mem_ctrls.readBursts                    105766                      
system.mem_ctrls.writeBursts                   105762                      
system.mem_ctrls.bytesReadDRAM                3667392                      
system.mem_ctrls.bytesReadWrQ                 3101632                      
system.mem_ctrls.bytesWritten                 3864512                      
system.mem_ctrls.bytesReadSys                 6769024                      
system.mem_ctrls.bytesWrittenSys              6768768                      
system.mem_ctrls.servicedByWrQ                  48463                      
system.mem_ctrls.mergedWrBursts                 45348                      
system.mem_ctrls.neitherReadNorWriteReqs            0                      
system.mem_ctrls.perBankRdBursts::0             10416                      
system.mem_ctrls.perBankRdBursts::1              4102                      
system.mem_ctrls.perBankRdBursts::2             14236                      
system.mem_ctrls.perBankRdBursts::3              1660                      
system.mem_ctrls.perBankRdBursts::4              4268                      
system.mem_ctrls.perBankRdBursts::5              1282                      
system.mem_ctrls.perBankRdBursts::6              3657                      
system.mem_ctrls.perBankRdBursts::7              6378                      
system.mem_ctrls.perBankRdBursts::8                73                      
system.mem_ctrls.perBankRdBursts::9               125                      
system.mem_ctrls.perBankRdBursts::10              224                      
system.mem_ctrls.perBankRdBursts::11               56                      
system.mem_ctrls.perBankRdBursts::12             1519                      
system.mem_ctrls.perBankRdBursts::13             1823                      
system.mem_ctrls.perBankRdBursts::14             5323                      
system.mem_ctrls.perBankRdBursts::15             2161                      
system.mem_ctrls.perBankWrBursts::0             10896                      
system.mem_ctrls.perBankWrBursts::1              4208                      
system.mem_ctrls.perBankWrBursts::2             15524                      
system.mem_ctrls.perBankWrBursts::3              1664                      
system.mem_ctrls.perBankWrBursts::4              4387                      
system.mem_ctrls.perBankWrBursts::5              1306                      
system.mem_ctrls.perBankWrBursts::6              3769                      
system.mem_ctrls.perBankWrBursts::7              6936                      
system.mem_ctrls.perBankWrBursts::8                78                      
system.mem_ctrls.perBankWrBursts::9               126                      
system.mem_ctrls.perBankWrBursts::10              223                      
system.mem_ctrls.perBankWrBursts::11               59                      
system.mem_ctrls.perBankWrBursts::12             1535                      
system.mem_ctrls.perBankWrBursts::13             1925                      
system.mem_ctrls.perBankWrBursts::14             5569                      
system.mem_ctrls.perBankWrBursts::15             2178                      
system.mem_ctrls.numRdRetry                         0                      
system.mem_ctrls.numWrRetry                         0                      
system.mem_ctrls.totGap                       7509249                      
system.mem_ctrls.readPktSize::0                     0                      
system.mem_ctrls.readPktSize::1                     0                      
system.mem_ctrls.readPktSize::2                     0                      
system.mem_ctrls.readPktSize::3                     0                      
system.mem_ctrls.readPktSize::4                     0                      
system.mem_ctrls.readPktSize::5                     0                      
system.mem_ctrls.readPktSize::6                105766                      
system.mem_ctrls.writePktSize::0                    0                      
system.mem_ctrls.writePktSize::1                    0                      
system.mem_ctrls.writePktSize::2                    0                      
system.mem_ctrls.writePktSize::3                    0                      
system.mem_ctrls.writePktSize::4                    0                      
system.mem_ctrls.writePktSize::5                    0                      
system.mem_ctrls.writePktSize::6               105762                      
system.mem_ctrls.rdQLenPdf::0                   57303                      
system.mem_ctrls.rdQLenPdf::1                       0                      
system.mem_ctrls.rdQLenPdf::2                       0                      
system.mem_ctrls.rdQLenPdf::3                       0                      
system.mem_ctrls.rdQLenPdf::4                       0                      
system.mem_ctrls.rdQLenPdf::5                       0                      
system.mem_ctrls.rdQLenPdf::6                       0                      
system.mem_ctrls.rdQLenPdf::7                       0                      
system.mem_ctrls.rdQLenPdf::8                       0                      
system.mem_ctrls.rdQLenPdf::9                       0                      
system.mem_ctrls.rdQLenPdf::10                      0                      
system.mem_ctrls.rdQLenPdf::11                      0                      
system.mem_ctrls.rdQLenPdf::12                      0                      
system.mem_ctrls.rdQLenPdf::13                      0                      
system.mem_ctrls.rdQLenPdf::14                      0                      
system.mem_ctrls.rdQLenPdf::15                      0                      
system.mem_ctrls.rdQLenPdf::16                      0                      
system.mem_ctrls.rdQLenPdf::17                      0                      
system.mem_ctrls.rdQLenPdf::18                      0                      
system.mem_ctrls.rdQLenPdf::19                      0                      
system.mem_ctrls.rdQLenPdf::20                      0                      
system.mem_ctrls.rdQLenPdf::21                      0                      
system.mem_ctrls.rdQLenPdf::22                      0                      
system.mem_ctrls.rdQLenPdf::23                      0                      
system.mem_ctrls.rdQLenPdf::24                      0                      
system.mem_ctrls.rdQLenPdf::25                      0                      
system.mem_ctrls.rdQLenPdf::26                      0                      
system.mem_ctrls.rdQLenPdf::27                      0                      
system.mem_ctrls.rdQLenPdf::28                      0                      
system.mem_ctrls.rdQLenPdf::29                      0                      
system.mem_ctrls.rdQLenPdf::30                      0                      
system.mem_ctrls.rdQLenPdf::31                      0                      
system.mem_ctrls.wrQLenPdf::0                       1                      
system.mem_ctrls.wrQLenPdf::1                       1                      
system.mem_ctrls.wrQLenPdf::2                       1                      
system.mem_ctrls.wrQLenPdf::3                       1                      
system.mem_ctrls.wrQLenPdf::4                       1                      
system.mem_ctrls.wrQLenPdf::5                       1                      
system.mem_ctrls.wrQLenPdf::6                       1                      
system.mem_ctrls.wrQLenPdf::7                       1                      
system.mem_ctrls.wrQLenPdf::8                       1                      
system.mem_ctrls.wrQLenPdf::9                       1                      
system.mem_ctrls.wrQLenPdf::10                      1                      
system.mem_ctrls.wrQLenPdf::11                      1                      
system.mem_ctrls.wrQLenPdf::12                      1                      
system.mem_ctrls.wrQLenPdf::13                      1                      
system.mem_ctrls.wrQLenPdf::14                      1                      
system.mem_ctrls.wrQLenPdf::15                    420                      
system.mem_ctrls.wrQLenPdf::16                    491                      
system.mem_ctrls.wrQLenPdf::17                   3187                      
system.mem_ctrls.wrQLenPdf::18                   3748                      
system.mem_ctrls.wrQLenPdf::19                   3828                      
system.mem_ctrls.wrQLenPdf::20                   3926                      
system.mem_ctrls.wrQLenPdf::21                   3882                      
system.mem_ctrls.wrQLenPdf::22                   3849                      
system.mem_ctrls.wrQLenPdf::23                   3726                      
system.mem_ctrls.wrQLenPdf::24                   3706                      
system.mem_ctrls.wrQLenPdf::25                   3707                      
system.mem_ctrls.wrQLenPdf::26                   3705                      
system.mem_ctrls.wrQLenPdf::27                   3708                      
system.mem_ctrls.wrQLenPdf::28                   3704                      
system.mem_ctrls.wrQLenPdf::29                   3705                      
system.mem_ctrls.wrQLenPdf::30                   3703                      
system.mem_ctrls.wrQLenPdf::31                   3702                      
system.mem_ctrls.wrQLenPdf::32                   3702                      
system.mem_ctrls.wrQLenPdf::33                      0                      
system.mem_ctrls.wrQLenPdf::34                      0                      
system.mem_ctrls.wrQLenPdf::35                      0                      
system.mem_ctrls.wrQLenPdf::36                      0                      
system.mem_ctrls.wrQLenPdf::37                      0                      
system.mem_ctrls.wrQLenPdf::38                      0                      
system.mem_ctrls.wrQLenPdf::39                      0                      
system.mem_ctrls.wrQLenPdf::40                      0                      
system.mem_ctrls.wrQLenPdf::41                      0                      
system.mem_ctrls.wrQLenPdf::42                      0                      
system.mem_ctrls.wrQLenPdf::43                      0                      
system.mem_ctrls.wrQLenPdf::44                      0                      
system.mem_ctrls.wrQLenPdf::45                      0                      
system.mem_ctrls.wrQLenPdf::46                      0                      
system.mem_ctrls.wrQLenPdf::47                      0                      
system.mem_ctrls.wrQLenPdf::48                      0                      
system.mem_ctrls.wrQLenPdf::49                      0                      
system.mem_ctrls.wrQLenPdf::50                      0                      
system.mem_ctrls.wrQLenPdf::51                      0                      
system.mem_ctrls.wrQLenPdf::52                      0                      
system.mem_ctrls.wrQLenPdf::53                      0                      
system.mem_ctrls.wrQLenPdf::54                      0                      
system.mem_ctrls.wrQLenPdf::55                      0                      
system.mem_ctrls.wrQLenPdf::56                      0                      
system.mem_ctrls.wrQLenPdf::57                      0                      
system.mem_ctrls.wrQLenPdf::58                      0                      
system.mem_ctrls.wrQLenPdf::59                      0                      
system.mem_ctrls.wrQLenPdf::60                      0                      
system.mem_ctrls.wrQLenPdf::61                      0                      
system.mem_ctrls.wrQLenPdf::62                      0                      
system.mem_ctrls.wrQLenPdf::63                      0                      
system.mem_ctrls.bytesPerActivate::samples        31948                      
system.mem_ctrls.bytesPerActivate::mean    235.741079                      
system.mem_ctrls.bytesPerActivate::gmean   166.398680                      
system.mem_ctrls.bytesPerActivate::stdev   216.242481                      
system.mem_ctrls.bytesPerActivate::0-127         9828     30.76%     30.76%
system.mem_ctrls.bytesPerActivate::128-255        10379     32.48%     63.24%
system.mem_ctrls.bytesPerActivate::256-383         4478     14.01%     77.26%
system.mem_ctrls.bytesPerActivate::384-511         3457     10.82%     88.08%
system.mem_ctrls.bytesPerActivate::512-639         1656      5.18%     93.27%
system.mem_ctrls.bytesPerActivate::640-767          748      2.34%     95.61%
system.mem_ctrls.bytesPerActivate::768-895          424      1.32%     96.93%
system.mem_ctrls.bytesPerActivate::896-1023          198      0.61%     97.55%
system.mem_ctrls.bytesPerActivate::1024-1151          780      2.44%     99.99%
system.mem_ctrls.bytesPerActivate::total        31948                      
system.mem_ctrls.rdPerTurnAround::samples         3702                      
system.mem_ctrls.rdPerTurnAround::mean      15.474878                      
system.mem_ctrls.rdPerTurnAround::gmean     15.414868                      
system.mem_ctrls.rdPerTurnAround::stdev      1.385956                      
system.mem_ctrls.rdPerTurnAround::12-13           203      5.48%      5.48%
system.mem_ctrls.rdPerTurnAround::14-15          1774     47.92%     53.40%
system.mem_ctrls.rdPerTurnAround::16-17          1445     39.03%     92.43%
system.mem_ctrls.rdPerTurnAround::18-19           266      7.18%     99.62%
system.mem_ctrls.rdPerTurnAround::20-21            13      0.35%     99.97%
system.mem_ctrls.rdPerTurnAround::34-35             1      0.02%     99.99%
system.mem_ctrls.rdPerTurnAround::total          3702                      
system.mem_ctrls.wrPerTurnAround::samples         3702                      
system.mem_ctrls.wrPerTurnAround::mean      16.310913                      
system.mem_ctrls.wrPerTurnAround::gmean     16.290706                      
system.mem_ctrls.wrPerTurnAround::stdev      0.846363                      
system.mem_ctrls.wrPerTurnAround::16             3228     87.19%     87.19%
system.mem_ctrls.wrPerTurnAround::17               33      0.89%     88.08%
system.mem_ctrls.wrPerTurnAround::18              221      5.96%     94.05%
system.mem_ctrls.wrPerTurnAround::19              204      5.51%     99.56%
system.mem_ctrls.wrPerTurnAround::20               16      0.43%     99.99%
system.mem_ctrls.wrPerTurnAround::total          3702                      
system.mem_ctrls.totQLat                      1328684                      
system.mem_ctrls.totMemAccLat                 2417441                      
system.mem_ctrls.totBusLat                     286515                      
system.mem_ctrls.avgQLat                        23.18                      
system.mem_ctrls.avgBusLat                       5.00                      
system.mem_ctrls.avgMemAccLat                   42.18                      
system.mem_ctrls.avgRdBW                       488.37                      
system.mem_ctrls.avgWrBW                       514.62                      
system.mem_ctrls.avgRdBWSys                    901.41                      
system.mem_ctrls.avgWrBWSys                    901.38                      
system.mem_ctrls.peakBW                      12800.00                      
system.mem_ctrls.busUtil                         7.83                      
system.mem_ctrls.busUtilRead                     3.81                      
system.mem_ctrls.busUtilWrite                    4.02                      
system.mem_ctrls.avgRdQLen                       0.99                      
system.mem_ctrls.avgWrQLen                      25.92                      
system.mem_ctrls.readRowHits                    32346                      
system.mem_ctrls.writeRowHits                   53387                      
system.mem_ctrls.readRowHitRate                 56.44                      
system.mem_ctrls.writeRowHitRate                88.36                      
system.mem_ctrls.avgGap                         35.50                      
system.mem_ctrls.pageHitRate                    72.82                      
system.mem_ctrls_0.actEnergy                164055780                      
system.mem_ctrls_0.preEnergy                 88775400                      
system.mem_ctrls_0.readEnergy               525492576                      
system.mem_ctrls_0.writeEnergy              406658880                      
system.mem_ctrls_0.refreshEnergy            594356880                      
system.mem_ctrls_0.actBackEnergy           1045534584                      
system.mem_ctrls_0.preBackEnergy             13471872                      
system.mem_ctrls_0.actPowerDownEnergy      2315965176                      
system.mem_ctrls_0.prePowerDownEnergy        33715968                      
system.mem_ctrls_0.selfRefreshEnergy          6298800                      
system.mem_ctrls_0.totalEnergy             5194325916                      
system.mem_ctrls_0.averagePower            691.715833                      
system.mem_ctrls_0.totalIdleTime              5181067                      
system.mem_ctrls_0.memoryStateTime::IDLE         5662                      
system.mem_ctrls_0.memoryStateTime::REF        251456                      
system.mem_ctrls_0.memoryStateTime::SREF        14740                      
system.mem_ctrls_0.memoryStateTime::PRE_PDN        87802                      
system.mem_ctrls_0.memoryStateTime::ACT       2070804                      
system.mem_ctrls_0.memoryStateTime::ACT_PDN      5078871                      
system.mem_ctrls_1.actEnergy                 64088640                      
system.mem_ctrls_1.preEnergy                 34671672                      
system.mem_ctrls_1.readEnergy               129136896                      
system.mem_ctrls_1.writeEnergy               97659936                      
system.mem_ctrls_1.refreshEnergy            584522640                      
system.mem_ctrls_1.actBackEnergy            824337648                      
system.mem_ctrls_1.preBackEnergy             13222656                      
system.mem_ctrls_1.actPowerDownEnergy      2331880944                      
system.mem_ctrls_1.prePowerDownEnergy       167677824                      
system.mem_ctrls_1.selfRefreshEnergy         29114400                      
system.mem_ctrls_1.totalEnergy             4276313256                      
system.mem_ctrls_1.averagePower            569.466305                      
system.mem_ctrls_1.totalIdleTime              5667106                      
system.mem_ctrls_1.memoryStateTime::IDLE         6314                      
system.mem_ctrls_1.memoryStateTime::REF        247272                      
system.mem_ctrls_1.memoryStateTime::SREF       116708                      
system.mem_ctrls_1.memoryStateTime::PRE_PDN       436661                      
system.mem_ctrls_1.memoryStateTime::ACT       1588606                      
system.mem_ctrls_1.memoryStateTime::ACT_PDN      5113774                      
system.pwrStateResidencyTicks::UNDEFINED      7509335                      
system.cpu.clk_domain.clock                         1                      
system.cpu.dtb.read_hits                            0                      
system.cpu.dtb.read_misses                          0                      
system.cpu.dtb.read_accesses                        0                      
system.cpu.dtb.write_hits                           0                      
system.cpu.dtb.write_misses                         0                      
system.cpu.dtb.write_accesses                       0                      
system.cpu.dtb.hits                                 0                      
system.cpu.dtb.misses                               0                      
system.cpu.dtb.accesses                             0                      
system.cpu.itb.read_hits                            0                      
system.cpu.itb.read_misses                          0                      
system.cpu.itb.read_accesses                        0                      
system.cpu.itb.write_hits                           0                      
system.cpu.itb.write_misses                         0                      
system.cpu.itb.write_accesses                       0                      
system.cpu.itb.hits                                 0                      
system.cpu.itb.misses                               0                      
system.cpu.itb.accesses                             0                      
system.cpu.workload.numSyscalls                   216                      
system.cpu.pwrStateResidencyTicks::ON         7509335                      
system.cpu.numCycles                          7509335                      
system.cpu.numWorkItemsStarted                      0                      
system.cpu.numWorkItemsCompleted                    0                      
system.cpu.committedInsts                      393394                      
system.cpu.committedOps                        394599                      
system.cpu.num_int_alu_accesses                392588                      
system.cpu.num_fp_alu_accesses                   1163                      
system.cpu.num_vec_alu_accesses                     0                      
system.cpu.num_func_calls                       22164                      
system.cpu.num_conditional_control_insts        63847                      
system.cpu.num_int_insts                       392588                      
system.cpu.num_fp_insts                          1163                      
system.cpu.num_vec_insts                            0                      
system.cpu.num_int_register_reads              495215                      
system.cpu.num_int_register_writes             261461                      
system.cpu.num_fp_register_reads                  936                      
system.cpu.num_fp_register_writes                 756                      
system.cpu.num_vec_register_reads                   0                      
system.cpu.num_vec_register_writes                  0                      
system.cpu.num_mem_refs                        160500                      
system.cpu.num_load_insts                       99900                      
system.cpu.num_store_insts                      60600                      
system.cpu.num_idle_cycles                         -0                      
system.cpu.num_busy_cycles                    7509335                      
system.cpu.not_idle_fraction                        1                      
system.cpu.idle_fraction                           -0                      
system.cpu.Branches                             86011                      
system.cpu.op_class::No_OpClass                   236      0.05%      0.05%
system.cpu.op_class::IntAlu                    233005     59.01%     59.07%
system.cpu.op_class::IntMult                      626      0.15%     59.23%
system.cpu.op_class::IntDiv                         4      0.00%     59.23%
system.cpu.op_class::FloatAdd                      11      0.00%     59.23%
system.cpu.op_class::FloatCmp                     161      0.04%     59.27%
system.cpu.op_class::FloatCvt                     109      0.02%     59.30%
system.cpu.op_class::FloatMult                      8      0.00%     59.30%
system.cpu.op_class::FloatMultAcc                  22      0.00%     59.31%
system.cpu.op_class::FloatDiv                      11      0.00%     59.31%
system.cpu.op_class::FloatMisc                    117      0.02%     59.34%
system.cpu.op_class::FloatSqrt                      5      0.00%     59.34%
system.cpu.op_class::SimdAdd                        0      0.00%     59.34%
system.cpu.op_class::SimdAddAcc                     0      0.00%     59.34%
system.cpu.op_class::SimdAlu                        0      0.00%     59.34%
system.cpu.op_class::SimdCmp                        0      0.00%     59.34%
system.cpu.op_class::SimdCvt                        0      0.00%     59.34%
system.cpu.op_class::SimdMisc                       0      0.00%     59.34%
system.cpu.op_class::SimdMult                       0      0.00%     59.34%
system.cpu.op_class::SimdMultAcc                    0      0.00%     59.34%
system.cpu.op_class::SimdShift                      0      0.00%     59.34%
system.cpu.op_class::SimdShiftAcc                   0      0.00%     59.34%
system.cpu.op_class::SimdSqrt                       0      0.00%     59.34%
system.cpu.op_class::SimdFloatAdd                   0      0.00%     59.34%
system.cpu.op_class::SimdFloatAlu                   0      0.00%     59.34%
system.cpu.op_class::SimdFloatCmp                   0      0.00%     59.34%
system.cpu.op_class::SimdFloatCvt                   0      0.00%     59.34%
system.cpu.op_class::SimdFloatDiv                   0      0.00%     59.34%
system.cpu.op_class::SimdFloatMisc                  0      0.00%     59.34%
system.cpu.op_class::SimdFloatMult                  0      0.00%     59.34%
system.cpu.op_class::SimdFloatMultAcc               0      0.00%     59.34%
system.cpu.op_class::SimdFloatSqrt                  0      0.00%     59.34%
system.cpu.op_class::MemRead                    99353     25.16%     84.51%
system.cpu.op_class::MemWrite                   60428     15.30%     99.81%
system.cpu.op_class::FloatMemRead                 547      0.13%     99.95%
system.cpu.op_class::FloatMemWrite                172      0.04%     99.99%
system.cpu.op_class::IprAccess                      0      0.00%     99.99%
system.cpu.op_class::InstPrefetch                   0      0.00%     99.99%
system.cpu.op_class::total                     394815                      
system.ruby.clk_domain.clock                        1                      
system.ruby.pwrStateResidencyTicks::UNDEFINED      7509335                      
system.ruby.delayHist::bucket_size                  1                      
system.ruby.delayHist::max_bucket                   9                      
system.ruby.delayHist::samples                 211528                      
system.ruby.delayHist                    |      211528    100.00%    100.00% |           0      0.00%    100.00% |           0      0.00%    100.00% |           0      0.00%    100.00% |           0      0.00%    100.00% |           0      0.00%    100.00% |           0      0.00%    100.00% |           0      0.00%    100.00% |           0      0.00%    100.00% |           0      0.00%    100.00%
system.ruby.delayHist::total                   211528                      
system.ruby.outstanding_req_hist_seqr::bucket_size            1                      
system.ruby.outstanding_req_hist_seqr::max_bucket            9                      
system.ruby.outstanding_req_hist_seqr::samples       620068                      
system.ruby.outstanding_req_hist_seqr::mean            1                      
system.ruby.outstanding_req_hist_seqr::gmean            1                      
system.ruby.outstanding_req_hist_seqr    |           0      0.00%      0.00% |      620068    100.00%    100.00% |           0      0.00%    100.00% |           0      0.00%    100.00% |           0      0.00%    100.00% |           0      0.00%    100.00% |           0      0.00%    100.00% |           0      0.00%    100.00% |           0      0.00%    100.00% |           0      0.00%    100.00%
system.ruby.outstanding_req_hist_seqr::total       620068                      
system.ruby.latency_hist_seqr::bucket_size           64                      
system.ruby.latency_hist_seqr::max_bucket          639                      
system.ruby.latency_hist_seqr::samples         620067                      
system.ruby.latency_hist_seqr::mean         11.110521                      
system.ruby.latency_hist_seqr::gmean         1.965024                      
system.ruby.latency_hist_seqr::stdev        27.320699                      
system.ruby.latency_hist_seqr            |      564019     90.96%     90.96% |       52053      8.39%     99.35% |        2580      0.41%     99.77% |         616      0.09%     99.87% |         441      0.07%     99.94% |         309      0.04%     99.99% |          34      0.00%     99.99% |           8      0.00%     99.99% |           0      0.00%     99.99% |           7      0.00%     99.99%
system.ruby.latency_hist_seqr::total           620067                      
system.ruby.hit_latency_hist_seqr::bucket_size            1                      
system.ruby.hit_latency_hist_seqr::max_bucket            9                      
system.ruby.hit_latency_hist_seqr::samples       514301                      
system.ruby.hit_latency_hist_seqr::mean             1                      
system.ruby.hit_latency_hist_seqr::gmean            1                      
system.ruby.hit_latency_hist_seqr        |           0      0.00%      0.00% |      514301    100.00%    100.00% |           0      0.00%    100.00% |           0      0.00%    100.00% |           0      0.00%    100.00% |           0      0.00%    100.00% |           0      0.00%    100.00% |           0      0.00%    100.00% |           0      0.00%    100.00% |           0      0.00%    100.00%
system.ruby.hit_latency_hist_seqr::total       514301                      
system.ruby.miss_latency_hist_seqr::bucket_size           64                      
system.ruby.miss_latency_hist_seqr::max_bucket          639                      
system.ruby.miss_latency_hist_seqr::samples       105766                      
system.ruby.miss_latency_hist_seqr::mean    60.274256                      
system.ruby.miss_latency_hist_seqr::gmean    52.469596                      
system.ruby.miss_latency_hist_seqr::stdev    38.234163                      
system.ruby.miss_latency_hist_seqr       |       49718     47.00%     47.00% |       52053     49.21%     96.22% |        2580      2.43%     98.66% |         616      0.58%     99.24% |         441      0.41%     99.66% |         309      0.29%     99.95% |          34      0.03%     99.98% |           8      0.00%     99.99% |           0      0.00%     99.99% |           7      0.00%     99.99%
system.ruby.miss_latency_hist_seqr::total       105766                      
system.ruby.Directory.incomplete_times_seqr       105765                      
system.ruby.dir_cntrl0.forwardFromDir.avg_buf_msgs     0.014084                      
system.ruby.dir_cntrl0.forwardFromDir.avg_stall_time     0.999948                      
system.ruby.dir_cntrl0.requestToDir.avg_buf_msgs     0.028168                      
system.ruby.dir_cntrl0.requestToDir.avg_stall_time    11.774444                      
system.ruby.dir_cntrl0.responseFromDir.avg_buf_msgs     0.014084                      
system.ruby.dir_cntrl0.responseFromDir.avg_stall_time     0.999990                      
system.ruby.dir_cntrl0.responseFromMemory.avg_buf_msgs     0.028168                      
system.ruby.dir_cntrl0.responseFromMemory.avg_stall_time     0.999990                      
system.ruby.dir_cntrl0.pwrStateResidencyTicks::UNDEFINED      7509335                      
system.ruby.l1_cntrl0.cacheMemory.demand_hits       514301                      
system.ruby.l1_cntrl0.cacheMemory.demand_misses       105766                      
system.ruby.l1_cntrl0.cacheMemory.demand_accesses       620067                      
system.ruby.l1_cntrl0.forwardToCache.avg_buf_msgs     0.014084                      
system.ruby.l1_cntrl0.forwardToCache.avg_stall_time     6.999630                      
system.ruby.l1_cntrl0.mandatoryQueue.avg_buf_msgs     0.082572                      
system.ruby.l1_cntrl0.mandatoryQueue.avg_stall_time     0.999999                      
system.ruby.l1_cntrl0.requestFromCache.avg_buf_msgs     0.056337                      
system.ruby.l1_cntrl0.requestFromCache.avg_stall_time     1.999999                      
system.ruby.l1_cntrl0.responseToCache.avg_buf_msgs     0.014084                      
system.ruby.l1_cntrl0.responseToCache.avg_stall_time     6.999930                      
system.ruby.l1_cntrl0.sequencer.pwrStateResidencyTicks::UNDEFINED      7509335                      
system.ruby.l1_cntrl0.pwrStateResidencyTicks::UNDEFINED      7509335                      
system.ruby.memctrl_clk_domain.clock                3                      
system.ruby.network.routers0.port_buffers03.avg_buf_msgs     0.014084                      
system.ruby.network.routers0.port_buffers03.avg_stall_time     5.999684                      
system.ruby.network.routers0.port_buffers04.avg_buf_msgs     0.014084                      
system.ruby.network.routers0.port_buffers04.avg_stall_time     5.999940                      
system.ruby.network.routers0.port_buffers07.avg_buf_msgs     0.084504                      
system.ruby.network.routers0.port_buffers07.avg_stall_time     6.774455                      
system.ruby.network.routers0.pwrStateResidencyTicks::UNDEFINED      7509335                      
system.ruby.network.routers0.percent_links_utilized     7.042168                      
system.ruby.network.routers0.msg_count.Control::2       105766                      
system.ruby.network.routers0.msg_count.Data::2       105762                      
system.ruby.network.routers0.msg_count.Response_Data::4       105766                      
system.ruby.network.routers0.msg_count.Writeback_Control::3       105762                      
system.ruby.network.routers0.msg_bytes.Control::2       846128                      
system.ruby.network.routers0.msg_bytes.Data::2      7614864                      
system.ruby.network.routers0.msg_bytes.Response_Data::4      7615152                      
system.ruby.network.routers0.msg_bytes.Writeback_Control::3       846096                      
system.ruby.network.routers1.port_buffers02.avg_buf_msgs     0.028168                      
system.ruby.network.routers1.port_buffers02.avg_stall_time    10.774447                      
system.ruby.network.routers1.port_buffers06.avg_buf_msgs     0.014084                      
system.ruby.network.routers1.port_buffers06.avg_stall_time     1.999895                      
system.ruby.network.routers1.port_buffers07.avg_buf_msgs     0.014084                      
system.ruby.network.routers1.port_buffers07.avg_stall_time     1.999981                      
system.ruby.network.routers1.pwrStateResidencyTicks::UNDEFINED      7509335                      
system.ruby.network.routers1.percent_links_utilized     7.042168                      
system.ruby.network.routers1.msg_count.Control::2       105766                      
system.ruby.network.routers1.msg_count.Data::2       105762                      
system.ruby.network.routers1.msg_count.Response_Data::4       105766                      
system.ruby.network.routers1.msg_count.Writeback_Control::3       105762                      
system.ruby.network.routers1.msg_bytes.Control::2       846128                      
system.ruby.network.routers1.msg_bytes.Data::2      7614864                      
system.ruby.network.routers1.msg_bytes.Response_Data::4      7615152                      
system.ruby.network.routers1.msg_bytes.Writeback_Control::3       846096                      
system.ruby.network.int_link_buffers02.avg_buf_msgs     0.028168                      
system.ruby.network.int_link_buffers02.avg_stall_time     7.774453                      
system.ruby.network.int_link_buffers08.avg_buf_msgs     0.014084                      
system.ruby.network.int_link_buffers08.avg_stall_time     2.999843                      
system.ruby.network.int_link_buffers09.avg_buf_msgs     0.014084                      
system.ruby.network.int_link_buffers09.avg_stall_time     2.999971                      
system.ruby.network.int_link_buffers13.avg_buf_msgs     0.014084                      
system.ruby.network.int_link_buffers13.avg_stall_time     4.999737                      
system.ruby.network.int_link_buffers14.avg_buf_msgs     0.014084                      
system.ruby.network.int_link_buffers14.avg_stall_time     4.999951                      
system.ruby.network.int_link_buffers17.avg_buf_msgs     0.028168                      
system.ruby.network.int_link_buffers17.avg_stall_time     9.774449                      
system.ruby.network.routers2.port_buffers03.avg_buf_msgs     0.014084                      
system.ruby.network.routers2.port_buffers03.avg_stall_time     3.999790                      
system.ruby.network.routers2.port_buffers04.avg_buf_msgs     0.014084                      
system.ruby.network.routers2.port_buffers04.avg_stall_time     3.999961                      
system.ruby.network.routers2.port_buffers07.avg_buf_msgs     0.028168                      
system.ruby.network.routers2.port_buffers07.avg_stall_time     8.774451                      
system.ruby.network.routers2.pwrStateResidencyTicks::UNDEFINED      7509335                      
system.ruby.network.routers2.percent_links_utilized     7.042168                      
system.ruby.network.routers2.msg_count.Control::2       105766                      
system.ruby.network.routers2.msg_count.Data::2       105762                      
system.ruby.network.routers2.msg_count.Response_Data::4       105766                      
system.ruby.network.routers2.msg_count.Writeback_Control::3       105762                      
system.ruby.network.routers2.msg_bytes.Control::2       846128                      
system.ruby.network.routers2.msg_bytes.Data::2      7614864                      
system.ruby.network.routers2.msg_bytes.Response_Data::4      7615152                      
system.ruby.network.routers2.msg_bytes.Writeback_Control::3       846096                      
system.ruby.network.pwrStateResidencyTicks::UNDEFINED      7509335                      
system.ruby.network.msg_count.Control          317298                      
system.ruby.network.msg_count.Data             317286                      
system.ruby.network.msg_count.Response_Data       317298                      
system.ruby.network.msg_count.Writeback_Control       317286                      
system.ruby.network.msg_byte.Control          2538384                      
system.ruby.network.msg_byte.Data            22844592                      
system.ruby.network.msg_byte.Response_Data     22845456                      
system.ruby.network.msg_byte.Writeback_Control      2538288                      
system.sys_port_proxy.pwrStateResidencyTicks::UNDEFINED      7509335                      
system.ruby.network.routers0.throttle0.link_utilization     7.042274                      
system.ruby.network.routers0.throttle0.msg_count.Response_Data::4       105766                      
system.ruby.network.routers0.throttle0.msg_count.Writeback_Control::3       105762                      
system.ruby.network.routers0.throttle0.msg_bytes.Response_Data::4      7615152                      
system.ruby.network.routers0.throttle0.msg_bytes.Writeback_Control::3       846096                      
system.ruby.network.routers0.throttle1.link_utilization     7.042061                      
system.ruby.network.routers0.throttle1.msg_count.Control::2       105766                      
system.ruby.network.routers0.throttle1.msg_count.Data::2       105762                      
system.ruby.network.routers0.throttle1.msg_bytes.Control::2       846128                      
system.ruby.network.routers0.throttle1.msg_bytes.Data::2      7614864                      
system.ruby.network.routers1.throttle0.link_utilization     7.042061                      
system.ruby.network.routers1.throttle0.msg_count.Control::2       105766                      
system.ruby.network.routers1.throttle0.msg_count.Data::2       105762                      
system.ruby.network.routers1.throttle0.msg_bytes.Control::2       846128                      
system.ruby.network.routers1.throttle0.msg_bytes.Data::2      7614864                      
system.ruby.network.routers1.throttle1.link_utilization     7.042274                      
system.ruby.network.routers1.throttle1.msg_count.Response_Data::4       105766                      
system.ruby.network.routers1.throttle1.msg_count.Writeback_Control::3       105762                      
system.ruby.network.routers1.throttle1.msg_bytes.Response_Data::4      7615152                      
system.ruby.network.routers1.throttle1.msg_bytes.Writeback_Control::3       846096                      
system.ruby.network.routers2.throttle0.link_utilization     7.042274                      
system.ruby.network.routers2.throttle0.msg_count.Response_Data::4       105766                      
system.ruby.network.routers2.throttle0.msg_count.Writeback_Control::3       105762                      
system.ruby.network.routers2.throttle0.msg_bytes.Response_Data::4      7615152                      
system.ruby.network.routers2.throttle0.msg_bytes.Writeback_Control::3       846096                      
system.ruby.network.routers2.throttle1.link_utilization     7.042061                      
system.ruby.network.routers2.throttle1.msg_count.Control::2       105766                      
system.ruby.network.routers2.throttle1.msg_count.Data::2       105762                      
system.ruby.network.routers2.throttle1.msg_bytes.Control::2       846128                      
system.ruby.network.routers2.throttle1.msg_bytes.Data::2      7614864                      
system.ruby.delayVCHist.vnet_1::bucket_size            1                      
system.ruby.delayVCHist.vnet_1::max_bucket            9                      
system.ruby.delayVCHist.vnet_1::samples        105766                      
system.ruby.delayVCHist.vnet_1           |      105766    100.00%    100.00% |           0      0.00%    100.00% |           0      0.00%    100.00% |           0      0.00%    100.00% |           0      0.00%    100.00% |           0      0.00%    100.00% |           0      0.00%    100.00% |           0      0.00%    100.00% |           0      0.00%    100.00% |           0      0.00%    100.00%
system.ruby.delayVCHist.vnet_1::total          105766                      
system.ruby.delayVCHist.vnet_2::bucket_size            1                      
system.ruby.delayVCHist.vnet_2::max_bucket            9                      
system.ruby.delayVCHist.vnet_2::samples        105762                      
system.ruby.delayVCHist.vnet_2           |      105762    100.00%    100.00% |           0      0.00%    100.00% |           0      0.00%    100.00% |           0      0.00%    100.00% |           0      0.00%    100.00% |           0      0.00%    100.00% |           0      0.00%    100.00% |           0      0.00%    100.00% |           0      0.00%    100.00% |           0      0.00%    100.00%
system.ruby.delayVCHist.vnet_2::total          105762                      
system.ruby.LD.latency_hist_seqr::bucket_size           64                      
system.ruby.LD.latency_hist_seqr::max_bucket          639                      
system.ruby.LD.latency_hist_seqr::samples        98257                      
system.ruby.LD.latency_hist_seqr::mean      28.240766                      
system.ruby.LD.latency_hist_seqr::gmean      6.902551                      
system.ruby.LD.latency_hist_seqr::stdev     37.623185                      
system.ruby.LD.latency_hist_seqr         |       76965     78.33%     78.33% |       19645     19.99%     98.32% |        1116      1.13%     99.45% |         219      0.22%     99.68% |         179      0.18%     99.86% |         108      0.10%     99.97% |          21      0.02%     99.99% |           3      0.00%     99.99% |           0      0.00%     99.99% |           1      0.00%     99.99%
system.ruby.LD.latency_hist_seqr::total         98257                      
system.ruby.LD.hit_latency_hist_seqr::bucket_size            1                      
system.ruby.LD.hit_latency_hist_seqr::max_bucket            9                      
system.ruby.LD.hit_latency_hist_seqr::samples        49322                      
system.ruby.LD.hit_latency_hist_seqr::mean            1                      
system.ruby.LD.hit_latency_hist_seqr::gmean            1                      
system.ruby.LD.hit_latency_hist_seqr     |           0      0.00%      0.00% |       49322    100.00%    100.00% |           0      0.00%    100.00% |           0      0.00%    100.00% |           0      0.00%    100.00% |           0      0.00%    100.00% |           0      0.00%    100.00% |           0      0.00%    100.00% |           0      0.00%    100.00% |           0      0.00%    100.00%
system.ruby.LD.hit_latency_hist_seqr::total        49322                      
system.ruby.LD.miss_latency_hist_seqr::bucket_size           64                      
system.ruby.LD.miss_latency_hist_seqr::max_bucket          639                      
system.ruby.LD.miss_latency_hist_seqr::samples        48935                      
system.ruby.LD.miss_latency_hist_seqr::mean    55.696965                      
system.ruby.LD.miss_latency_hist_seqr::gmean    48.378747                      
system.ruby.LD.miss_latency_hist_seqr::stdev    36.611888                      
system.ruby.LD.miss_latency_hist_seqr    |       27643     56.48%     56.48% |       19645     40.14%     96.63% |        1116      2.28%     98.91% |         219      0.44%     99.36% |         179      0.36%     99.72% |         108      0.22%     99.94% |          21      0.04%     99.99% |           3      0.00%     99.99% |           0      0.00%     99.99% |           1      0.00%     99.99%
system.ruby.LD.miss_latency_hist_seqr::total        48935                      
system.ruby.ST.latency_hist_seqr::bucket_size           64                      
system.ruby.ST.latency_hist_seqr::max_bucket          639                      
system.ruby.ST.latency_hist_seqr::samples        58957                      
system.ruby.ST.latency_hist_seqr::mean      15.303899                      
system.ruby.ST.latency_hist_seqr::gmean      2.947885                      
system.ruby.ST.latency_hist_seqr::stdev     29.960309                      
system.ruby.ST.latency_hist_seqr         |       53506     90.75%     90.75% |        4941      8.38%     99.13% |         311      0.52%     99.66% |         110      0.18%     99.84% |          44      0.07%     99.92% |          39      0.06%     99.98% |           1      0.00%     99.99% |           1      0.00%     99.99% |           0      0.00%     99.99% |           4      0.00%     99.99%
system.ruby.ST.latency_hist_seqr::total         58957                      
system.ruby.ST.hit_latency_hist_seqr::bucket_size            1                      
system.ruby.ST.hit_latency_hist_seqr::max_bucket            9                      
system.ruby.ST.hit_latency_hist_seqr::samples        42116                      
system.ruby.ST.hit_latency_hist_seqr::mean            1                      
system.ruby.ST.hit_latency_hist_seqr::gmean            1                      
system.ruby.ST.hit_latency_hist_seqr     |           0      0.00%      0.00% |       42116    100.00%    100.00% |           0      0.00%    100.00% |           0      0.00%    100.00% |           0      0.00%    100.00% |           0      0.00%    100.00% |           0      0.00%    100.00% |           0      0.00%    100.00% |           0      0.00%    100.00% |           0      0.00%    100.00%
system.ruby.ST.hit_latency_hist_seqr::total        42116                      
system.ruby.ST.miss_latency_hist_seqr::bucket_size           64                      
system.ruby.ST.miss_latency_hist_seqr::max_bucket          639                      
system.ruby.ST.miss_latency_hist_seqr::samples        16841                      
system.ruby.ST.miss_latency_hist_seqr::mean    51.075114                      
system.ruby.ST.miss_latency_hist_seqr::gmean    44.021341                      
system.ruby.ST.miss_latency_hist_seqr::stdev    36.758254                      
system.ruby.ST.miss_latency_hist_seqr    |       11390     67.63%     67.63% |        4941     29.33%     96.97% |         311      1.84%     98.81% |         110      0.65%     99.47% |          44      0.26%     99.73% |          39      0.23%     99.96% |           1      0.00%     99.97% |           1      0.00%     99.97% |           0      0.00%     99.97% |           4      0.02%     99.99%
system.ruby.ST.miss_latency_hist_seqr::total        16841                      
system.ruby.IFETCH.latency_hist_seqr::bucket_size           64                      
system.ruby.IFETCH.latency_hist_seqr::max_bucket          639                      
system.ruby.IFETCH.latency_hist_seqr::samples       459567                      
system.ruby.IFETCH.latency_hist_seqr::mean     6.976038                      
system.ruby.IFETCH.latency_hist_seqr::gmean     1.431999                      
system.ruby.IFETCH.latency_hist_seqr::stdev    22.501353                      
system.ruby.IFETCH.latency_hist_seqr     |      430269     93.62%     93.62% |       27462      5.97%     99.60% |        1151      0.25%     99.85% |         287      0.06%     99.91% |         218      0.04%     99.96% |         162      0.03%     99.99% |          12      0.00%     99.99% |           4      0.00%     99.99% |           0      0.00%     99.99% |           2      0.00%     99.99%
system.ruby.IFETCH.latency_hist_seqr::total       459567                      
system.ruby.IFETCH.hit_latency_hist_seqr::bucket_size            1                      
system.ruby.IFETCH.hit_latency_hist_seqr::max_bucket            9                      
system.ruby.IFETCH.hit_latency_hist_seqr::samples       419656                      
system.ruby.IFETCH.hit_latency_hist_seqr::mean            1                      
system.ruby.IFETCH.hit_latency_hist_seqr::gmean            1                      
system.ruby.IFETCH.hit_latency_hist_seqr |           0      0.00%      0.00% |      419656    100.00%    100.00% |           0      0.00%    100.00% |           0      0.00%    100.00% |           0      0.00%    100.00% |           0      0.00%    100.00% |           0      0.00%    100.00% |           0      0.00%    100.00% |           0      0.00%    100.00% |           0      0.00%    100.00%
system.ruby.IFETCH.hit_latency_hist_seqr::total       419656                      
system.ruby.IFETCH.miss_latency_hist_seqr::bucket_size           64                      
system.ruby.IFETCH.miss_latency_hist_seqr::max_bucket          639                      
system.ruby.IFETCH.miss_latency_hist_seqr::samples        39911                      
system.ruby.IFETCH.miss_latency_hist_seqr::mean    69.812858                      
system.ruby.IFETCH.miss_latency_hist_seqr::gmean    62.466877                      
system.ruby.IFETCH.miss_latency_hist_seqr::stdev    38.808640                      
system.ruby.IFETCH.miss_latency_hist_seqr |       10613     26.59%     26.59% |       27462     68.80%     95.39% |        1151      2.88%     98.28% |         287      0.71%     99.00% |         218      0.54%     99.54% |         162      0.40%     99.95% |          12      0.03%     99.98% |           4      0.01%     99.99% |           0      0.00%     99.99% |           2      0.00%     99.99%
system.ruby.IFETCH.miss_latency_hist_seqr::total        39911                      
system.ruby.Load_Linked.latency_hist_seqr::bucket_size           32                      
system.ruby.Load_Linked.latency_hist_seqr::max_bucket          319                      
system.ruby.Load_Linked.latency_hist_seqr::samples         1643                      
system.ruby.Load_Linked.latency_hist_seqr::mean     2.765063                      
system.ruby.Load_Linked.latency_hist_seqr::gmean     1.186587                      
system.ruby.Load_Linked.latency_hist_seqr::stdev     9.131176                      
system.ruby.Load_Linked.latency_hist_seqr |        1564     95.19%     95.19% |          72      4.38%     99.57% |           5      0.30%     99.87% |           0      0.00%     99.87% |           1      0.06%     99.93% |           1      0.06%     99.99% |           0      0.00%     99.99% |           0      0.00%     99.99% |           0      0.00%     99.99% |           0      0.00%     99.99%
system.ruby.Load_Linked.latency_hist_seqr::total         1643                      
system.ruby.Load_Linked.hit_latency_hist_seqr::bucket_size            1                      
system.ruby.Load_Linked.hit_latency_hist_seqr::max_bucket            9                      
system.ruby.Load_Linked.hit_latency_hist_seqr::samples         1564                      
system.ruby.Load_Linked.hit_latency_hist_seqr::mean            1                      
system.ruby.Load_Linked.hit_latency_hist_seqr::gmean            1                      
system.ruby.Load_Linked.hit_latency_hist_seqr |           0      0.00%      0.00% |        1564    100.00%    100.00% |           0      0.00%    100.00% |           0      0.00%    100.00% |           0      0.00%    100.00% |           0      0.00%    100.00% |           0      0.00%    100.00% |           0      0.00%    100.00% |           0      0.00%    100.00% |           0      0.00%    100.00%
system.ruby.Load_Linked.hit_latency_hist_seqr::total         1564                      
system.ruby.Load_Linked.miss_latency_hist_seqr::bucket_size           32                      
system.ruby.Load_Linked.miss_latency_hist_seqr::max_bucket          319                      
system.ruby.Load_Linked.miss_latency_hist_seqr::samples           79                      
system.ruby.Load_Linked.miss_latency_hist_seqr::mean    37.708860                      
system.ruby.Load_Linked.miss_latency_hist_seqr::gmean    35.095112                      
system.ruby.Load_Linked.miss_latency_hist_seqr::stdev    21.354848                      
system.ruby.Load_Linked.miss_latency_hist_seqr |           0      0.00%      0.00% |          72     91.13%     91.13% |           5      6.32%     97.46% |           0      0.00%     97.46% |           1      1.26%     98.73% |           1      1.26%     99.99% |           0      0.00%     99.99% |           0      0.00%     99.99% |           0      0.00%     99.99% |           0      0.00%     99.99%
system.ruby.Load_Linked.miss_latency_hist_seqr::total           79                      
system.ruby.Store_Conditional.latency_hist_seqr::bucket_size            1                      
system.ruby.Store_Conditional.latency_hist_seqr::max_bucket            9                      
system.ruby.Store_Conditional.latency_hist_seqr::samples         1643                      
system.ruby.Store_Conditional.latency_hist_seqr::mean            1                      
system.ruby.Store_Conditional.latency_hist_seqr::gmean            1                      
system.ruby.Store_Conditional.latency_hist_seqr |           0      0.00%      0.00% |        1643    100.00%    100.00% |           0      0.00%    100.00% |           0      0.00%    100.00% |           0      0.00%    100.00% |           0      0.00%    100.00% |           0      0.00%    100.00% |           0      0.00%    100.00% |           0      0.00%    100.00% |           0      0.00%    100.00%
system.ruby.Store_Conditional.latency_hist_seqr::total         1643                      
system.ruby.Store_Conditional.hit_latency_hist_seqr::bucket_size            1                      
system.ruby.Store_Conditional.hit_latency_hist_seqr::max_bucket            9                      
system.ruby.Store_Conditional.hit_latency_hist_seqr::samples         1643                      
system.ruby.Store_Conditional.hit_latency_hist_seqr::mean            1                      
system.ruby.Store_Conditional.hit_latency_hist_seqr::gmean            1                      
system.ruby.Store_Conditional.hit_latency_hist_seqr |           0      0.00%      0.00% |        1643    100.00%    100.00% |           0      0.00%    100.00% |           0      0.00%    100.00% |           0      0.00%    100.00% |           0      0.00%    100.00% |           0      0.00%    100.00% |           0      0.00%    100.00% |           0      0.00%    100.00% |           0      0.00%    100.00%
system.ruby.Store_Conditional.hit_latency_hist_seqr::total         1643                      
system.ruby.Directory.miss_mach_latency_hist_seqr::bucket_size           64                      
system.ruby.Directory.miss_mach_latency_hist_seqr::max_bucket          639                      
system.ruby.Directory.miss_mach_latency_hist_seqr::samples       105766                      
system.ruby.Directory.miss_mach_latency_hist_seqr::mean    60.274256                      
system.ruby.Directory.miss_mach_latency_hist_seqr::gmean    52.469596                      
system.ruby.Directory.miss_mach_latency_hist_seqr::stdev    38.234163                      
system.ruby.Directory.miss_mach_latency_hist_seqr |       49718     47.00%     47.00% |       52053     49.21%     96.22% |        2580      2.43%     98.66% |         616      0.58%     99.24% |         441      0.41%     99.66% |         309      0.29%     99.95% |          34      0.03%     99.98% |           8      0.00%     99.99% |           0      0.00%     99.99% |           7      0.00%     99.99%
system.ruby.Directory.miss_mach_latency_hist_seqr::total       105766                      
system.ruby.Directory.miss_latency_hist_seqr.issue_to_initial_request::bucket_size            1                      
system.ruby.Directory.miss_latency_hist_seqr.issue_to_initial_request::max_bucket            9                      
system.ruby.Directory.miss_latency_hist_seqr.issue_to_initial_request::samples            1                      
system.ruby.Directory.miss_latency_hist_seqr.issue_to_initial_request::stdev          nan                      
system.ruby.Directory.miss_latency_hist_seqr.issue_to_initial_request |           1    100.00%    100.00% |           0      0.00%    100.00% |           0      0.00%    100.00% |           0      0.00%    100.00% |           0      0.00%    100.00% |           0      0.00%    100.00% |           0      0.00%    100.00% |           0      0.00%    100.00% |           0      0.00%    100.00% |           0      0.00%    100.00%
system.ruby.Directory.miss_latency_hist_seqr.issue_to_initial_request::total            1                      
system.ruby.Directory.miss_latency_hist_seqr.initial_to_forward::bucket_size            1                      
system.ruby.Directory.miss_latency_hist_seqr.initial_to_forward::max_bucket            9                      
system.ruby.Directory.miss_latency_hist_seqr.initial_to_forward::samples            1                      
system.ruby.Directory.miss_latency_hist_seqr.initial_to_forward::stdev          nan                      
system.ruby.Directory.miss_latency_hist_seqr.initial_to_forward |           1    100.00%    100.00% |           0      0.00%    100.00% |           0      0.00%    100.00% |           0      0.00%    100.00% |           0      0.00%    100.00% |           0      0.00%    100.00% |           0      0.00%    100.00% |           0      0.00%    100.00% |           0      0.00%    100.00% |           0      0.00%    100.00%
system.ruby.Directory.miss_latency_hist_seqr.initial_to_forward::total            1                      
system.ruby.Directory.miss_latency_hist_seqr.forward_to_first_response::bucket_size            1                      
system.ruby.Directory.miss_latency_hist_seqr.forward_to_first_response::max_bucket            9                      
system.ruby.Directory.miss_latency_hist_seqr.forward_to_first_response::samples            1                      
system.ruby.Directory.miss_latency_hist_seqr.forward_to_first_response::stdev          nan                      
system.ruby.Directory.miss_latency_hist_seqr.forward_to_first_response |           1    100.00%    100.00% |           0      0.00%    100.00% |           0      0.00%    100.00% |           0      0.00%    100.00% |           0      0.00%    100.00% |           0      0.00%    100.00% |           0      0.00%    100.00% |           0      0.00%    100.00% |           0      0.00%    100.00% |           0      0.00%    100.00%
system.ruby.Directory.miss_latency_hist_seqr.forward_to_first_response::total            1                      
system.ruby.Directory.miss_latency_hist_seqr.first_response_to_completion::bucket_size            8                      
system.ruby.Directory.miss_latency_hist_seqr.first_response_to_completion::max_bucket           79                      
system.ruby.Directory.miss_latency_hist_seqr.first_response_to_completion::samples            1                      
system.ruby.Directory.miss_latency_hist_seqr.first_response_to_completion::mean           75                      
system.ruby.Directory.miss_latency_hist_seqr.first_response_to_completion::gmean    74.999999                      
system.ruby.Directory.miss_latency_hist_seqr.first_response_to_completion::stdev          nan                      
system.ruby.Directory.miss_latency_hist_seqr.first_response_to_completion |           0      0.00%      0.00% |           0      0.00%      0.00% |           0      0.00%      0.00% |           0      0.00%      0.00% |           0      0.00%      0.00% |           0      0.00%      0.00% |           0      0.00%      0.00% |           0      0.00%      0.00% |           0      0.00%      0.00% |           1    100.00%    100.00%
system.ruby.Directory.miss_latency_hist_seqr.first_response_to_completion::total            1                      
system.ruby.LD.Directory.miss_type_mach_latency_hist_seqr::bucket_size           64                      
system.ruby.LD.Directory.miss_type_mach_latency_hist_seqr::max_bucket          639                      
system.ruby.LD.Directory.miss_type_mach_latency_hist_seqr::samples        48935                      
system.ruby.LD.Directory.miss_type_mach_latency_hist_seqr::mean    55.696965                      
system.ruby.LD.Directory.miss_type_mach_latency_hist_seqr::gmean    48.378747                      
system.ruby.LD.Directory.miss_type_mach_latency_hist_seqr::stdev    36.611888                      
system.ruby.LD.Directory.miss_type_mach_latency_hist_seqr |       27643     56.48%     56.48% |       19645     40.14%     96.63% |        1116      2.28%     98.91% |         219      0.44%     99.36% |         179      0.36%     99.72% |         108      0.22%     99.94% |          21      0.04%     99.99% |           3      0.00%     99.99% |           0      0.00%     99.99% |           1      0.00%     99.99%
system.ruby.LD.Directory.miss_type_mach_latency_hist_seqr::total        48935                      
system.ruby.ST.Directory.miss_type_mach_latency_hist_seqr::bucket_size           64                      
system.ruby.ST.Directory.miss_type_mach_latency_hist_seqr::max_bucket          639                      
system.ruby.ST.Directory.miss_type_mach_latency_hist_seqr::samples        16841                      
system.ruby.ST.Directory.miss_type_mach_latency_hist_seqr::mean    51.075114                      
system.ruby.ST.Directory.miss_type_mach_latency_hist_seqr::gmean    44.021341                      
system.ruby.ST.Directory.miss_type_mach_latency_hist_seqr::stdev    36.758254                      
system.ruby.ST.Directory.miss_type_mach_latency_hist_seqr |       11390     67.63%     67.63% |        4941     29.33%     96.97% |         311      1.84%     98.81% |         110      0.65%     99.47% |          44      0.26%     99.73% |          39      0.23%     99.96% |           1      0.00%     99.97% |           1      0.00%     99.97% |           0      0.00%     99.97% |           4      0.02%     99.99%
system.ruby.ST.Directory.miss_type_mach_latency_hist_seqr::total        16841                      
system.ruby.IFETCH.Directory.miss_type_mach_latency_hist_seqr::bucket_size           64                      
system.ruby.IFETCH.Directory.miss_type_mach_latency_hist_seqr::max_bucket          639                      
system.ruby.IFETCH.Directory.miss_type_mach_latency_hist_seqr::samples        39911                      
system.ruby.IFETCH.Directory.miss_type_mach_latency_hist_seqr::mean    69.812858                      
system.ruby.IFETCH.Directory.miss_type_mach_latency_hist_seqr::gmean    62.466877                      
system.ruby.IFETCH.Directory.miss_type_mach_latency_hist_seqr::stdev    38.808640                      
system.ruby.IFETCH.Directory.miss_type_mach_latency_hist_seqr |       10613     26.59%     26.59% |       27462     68.80%     95.39% |        1151      2.88%     98.28% |         287      0.71%     99.00% |         218      0.54%     99.54% |         162      0.40%     99.95% |          12      0.03%     99.98% |           4      0.01%     99.99% |           0      0.00%     99.99% |           2      0.00%     99.99%
system.ruby.IFETCH.Directory.miss_type_mach_latency_hist_seqr::total        39911                      
system.ruby.Load_Linked.Directory.miss_type_mach_latency_hist_seqr::bucket_size           32                      
system.ruby.Load_Linked.Directory.miss_type_mach_latency_hist_seqr::max_bucket          319                      
system.ruby.Load_Linked.Directory.miss_type_mach_latency_hist_seqr::samples           79                      
system.ruby.Load_Linked.Directory.miss_type_mach_latency_hist_seqr::mean    37.708860                      
system.ruby.Load_Linked.Directory.miss_type_mach_latency_hist_seqr::gmean    35.095112                      
system.ruby.Load_Linked.Directory.miss_type_mach_latency_hist_seqr::stdev    21.354848                      
system.ruby.Load_Linked.Directory.miss_type_mach_latency_hist_seqr |           0      0.00%      0.00% |          72     91.13%     91.13% |           5      6.32%     97.46% |           0      0.00%     97.46% |           1      1.26%     98.73% |           1      1.26%     99.99% |           0      0.00%     99.99% |           0      0.00%     99.99% |           0      0.00%     99.99% |           0      0.00%     99.99%
system.ruby.Load_Linked.Directory.miss_type_mach_latency_hist_seqr::total           79                      
system.ruby.Directory_Controller.GETX          105766      0.00%      0.00%
system.ruby.Directory_Controller.PUTX          105762      0.00%      0.00%
system.ruby.Directory_Controller.Memory_Data       105766      0.00%      0.00%
system.ruby.Directory_Controller.Memory_Ack       105762      0.00%      0.00%
system.ruby.Directory_Controller.I.GETX        105766      0.00%      0.00%
system.ruby.Directory_Controller.M.PUTX        105762      0.00%      0.00%
system.ruby.Directory_Controller.IM.Memory_Data       105766      0.00%      0.00%
system.ruby.Directory_Controller.MI.Memory_Ack       105762      0.00%      0.00%
system.ruby.L1Cache_Controller.Load             98257      0.00%      0.00%
system.ruby.L1Cache_Controller.Ifetch          459567      0.00%      0.00%
system.ruby.L1Cache_Controller.Store            62243      0.00%      0.00%
system.ruby.L1Cache_Controller.Data            105766      0.00%      0.00%
system.ruby.L1Cache_Controller.Replacement       105762      0.00%      0.00%
system.ruby.L1Cache_Controller.Writeback_Ack       105762      0.00%      0.00%
system.ruby.L1Cache_Controller.I.Load           48935      0.00%      0.00%
system.ruby.L1Cache_Controller.I.Ifetch         39911      0.00%      0.00%
system.ruby.L1Cache_Controller.I.Store          16920      0.00%      0.00%
system.ruby.L1Cache_Controller.M.Load           49322      0.00%      0.00%
system.ruby.L1Cache_Controller.M.Ifetch        419656      0.00%      0.00%
system.ruby.L1Cache_Controller.M.Store          45323      0.00%      0.00%
system.ruby.L1Cache_Controller.M.Replacement       105762      0.00%      0.00%
system.ruby.L1Cache_Controller.MI.Writeback_Ack       105762      0.00%      0.00%
system.ruby.L1Cache_Controller.IS.Data          88846      0.00%      0.00%
system.ruby.L1Cache_Controller.IM.Data          16920      0.00%      0.00%

---------- End Simulation Statistics   ----------
