
---------- Begin Simulation Statistics ----------
sim_seconds                                  0.000163                      
sim_ticks                                   162640000                      
final_tick                                  162640000                      
sim_freq                                 1000000000000                      
host_inst_rate                                 122706                      
host_op_rate                                   123059                      
host_tick_rate                               74276467                      
host_mem_usage                                 390764                      
host_seconds                                     2.19                      
sim_insts                                      268679                      
sim_ops                                        269454                      
system.voltage_domain.voltage                       1                      
system.clk_domain.clock                          1000                      
system.physmem.pwrStateResidencyTicks::UNDEFINED    162640000                      
system.physmem.bytes_read::cpu.inst           1298024                      
system.physmem.bytes_read::cpu.data            455713                      
system.physmem.bytes_read::total              1753737                      
system.physmem.bytes_inst_read::cpu.inst      1298024                      
system.physmem.bytes_inst_read::total         1298024                      
system.physmem.bytes_written::cpu.data         284656                      
system.physmem.bytes_written::total            284656                      
system.physmem.num_reads::cpu.inst             324506                      
system.physmem.num_reads::cpu.data              68237                      
system.physmem.num_reads::total                392743                      
system.physmem.num_writes::cpu.data             41791                      
system.physmem.num_writes::total                41791                      
system.physmem.bw_read::cpu.inst           7980964092                      
system.physmem.bw_read::cpu.data           2801973684                      
system.physmem.bw_read::total             10782937777                      
system.physmem.bw_inst_read::cpu.inst      7980964092                      
system.physmem.bw_inst_read::total         7980964092                      
system.physmem.bw_write::cpu.data          1750221348                      
system.physmem.bw_write::total             1750221348                      
system.physmem.bw_total::cpu.inst          7980964092                      
system.physmem.bw_total::cpu.data          4552195032                      
system.physmem.bw_total::total            12533159124                      
system.pwrStateResidencyTicks::UNDEFINED    162640000                      
system.cpu_clk_domain.clock                       500                      
system.cpu.dtb.read_hits                            0                      
system.cpu.dtb.read_misses                          0                      
system.cpu.dtb.read_accesses                        0                      
system.cpu.dtb.write_hits                           0                      
system.cpu.dtb.write_misses                         0                      
system.cpu.dtb.write_accesses                       0                      
system.cpu.dtb.hits                                 0                      
system.cpu.dtb.misses                               0                      
system.cpu.dtb.accesses                             0                      
system.cpu.itb.read_hits                            0                      
system.cpu.itb.read_misses                          0                      
system.cpu.itb.read_accesses                        0                      
system.cpu.itb.write_hits                           0                      
system.cpu.itb.write_misses                         0                      
system.cpu.itb.write_accesses                       0                      
system.cpu.itb.hits                                 0                      
system.cpu.itb.misses                               0                      
system.cpu.itb.accesses                             0                      
system.cpu.workload.numSyscalls                   183                      
system.cpu.pwrStateResidencyTicks::ON       162640000                      
system.cpu.numCycles                           325281                      
system.cpu.numWorkItemsStarted                      0                      
system.cpu.numWorkItemsCompleted                    0                      
system.cpu.committedInsts                      268679                      
system.cpu.committedOps                        269454                      
system.cpu.num_int_alu_accesses                268028                      
system.cpu.num_fp_alu_accesses                     12                      
system.cpu.num_vec_alu_accesses                     0                      
system.cpu.num_func_calls                       15774                      
system.cpu.num_conditional_control_insts        41505                      
system.cpu.num_int_insts                       268028                      
system.cpu.num_fp_insts                            12                      
system.cpu.num_vec_insts                            0                      
system.cpu.num_int_register_reads              336729                      
system.cpu.num_int_register_writes             179483                      
system.cpu.num_fp_register_reads                   12                      
system.cpu.num_fp_register_writes                   0                      
system.cpu.num_vec_register_reads                   0                      
system.cpu.num_vec_register_writes                  0                      
system.cpu.num_mem_refs                        110028                      
system.cpu.num_load_insts                       68237                      
system.cpu.num_store_insts                      41791                      
system.cpu.num_idle_cycles                          0                      
system.cpu.num_busy_cycles                     325281                      
system.cpu.not_idle_fraction                        1                      
system.cpu.idle_fraction                            0                      
system.cpu.Branches                             57279                      
system.cpu.op_class::No_OpClass                   192      0.07%      0.07%
system.cpu.op_class::IntAlu                    158712     58.86%     58.93%
system.cpu.op_class::IntMult                      439      0.16%     59.10%
system.cpu.op_class::IntDiv                       266      0.10%     59.19%
system.cpu.op_class::FloatAdd                       0      0.00%     59.19%
system.cpu.op_class::FloatCmp                       0      0.00%     59.19%
system.cpu.op_class::FloatCvt                       0      0.00%     59.19%
system.cpu.op_class::FloatMult                      0      0.00%     59.19%
system.cpu.op_class::FloatMultAcc                   0      0.00%     59.19%
system.cpu.op_class::FloatDiv                       0      0.00%     59.19%
system.cpu.op_class::FloatMisc                      0      0.00%     59.19%
system.cpu.op_class::FloatSqrt                      0      0.00%     59.19%
system.cpu.op_class::SimdAdd                        0      0.00%     59.19%
system.cpu.op_class::SimdAddAcc                     0      0.00%     59.19%
system.cpu.op_class::SimdAlu                        0      0.00%     59.19%
system.cpu.op_class::SimdCmp                        0      0.00%     59.19%
system.cpu.op_class::SimdCvt                        0      0.00%     59.19%
system.cpu.op_class::SimdMisc                       0      0.00%     59.19%
system.cpu.op_class::SimdMult                       0      0.00%     59.19%
system.cpu.op_class::SimdMultAcc                    0      0.00%     59.19%
system.cpu.op_class::SimdShift                      0      0.00%     59.19%
system.cpu.op_class::SimdShiftAcc                   0      0.00%     59.19%
system.cpu.op_class::SimdSqrt                       0      0.00%     59.19%
system.cpu.op_class::SimdFloatAdd                   0      0.00%     59.19%
system.cpu.op_class::SimdFloatAlu                   0      0.00%     59.19%
system.cpu.op_class::SimdFloatCmp                   0      0.00%     59.19%
system.cpu.op_class::SimdFloatCvt                   0      0.00%     59.19%
system.cpu.op_class::SimdFloatDiv                   0      0.00%     59.19%
system.cpu.op_class::SimdFloatMisc                  0      0.00%     59.19%
system.cpu.op_class::SimdFloatMult                  0      0.00%     59.19%
system.cpu.op_class::SimdFloatMultAcc               0      0.00%     59.19%
system.cpu.op_class::SimdFloatSqrt                  0      0.00%     59.19%
system.cpu.op_class::MemRead                    68237     25.31%     84.50%
system.cpu.op_class::MemWrite                   41779     15.49%    100.00%
system.cpu.op_class::FloatMemRead                   0      0.00%    100.00%
system.cpu.op_class::FloatMemWrite                 12      0.00%    100.00%
system.cpu.op_class::IprAccess                      0      0.00%    100.00%
system.cpu.op_class::InstPrefetch                   0      0.00%    100.00%
system.cpu.op_class::total                     269637                      
system.membus.snoop_filter.tot_requests             0                      
system.membus.snoop_filter.hit_single_requests            0                      
system.membus.snoop_filter.hit_multi_requests            0                      
system.membus.snoop_filter.tot_snoops               0                      
system.membus.snoop_filter.hit_single_snoops            0                      
system.membus.snoop_filter.hit_multi_snoops            0                      
system.membus.pwrStateResidencyTicks::UNDEFINED    162640000                      
system.membus.trans_dist::ReadReq              391959                      
system.membus.trans_dist::ReadResp             392743                      
system.membus.trans_dist::WriteReq              41007                      
system.membus.trans_dist::WriteResp             41007                      
system.membus.trans_dist::LoadLockedReq           784                      
system.membus.trans_dist::StoreCondReq            784                      
system.membus.trans_dist::StoreCondResp           784                      
system.membus.pkt_count_system.cpu.icache_port::system.physmem.port       649012                      
system.membus.pkt_count_system.cpu.dcache_port::system.physmem.port       220056                      
system.membus.pkt_count::total                 869068                      
system.membus.pkt_size_system.cpu.icache_port::system.physmem.port      1298024                      
system.membus.pkt_size_system.cpu.dcache_port::system.physmem.port       740369                      
system.membus.pkt_size::total                 2038393                      
system.membus.snoops                                0                      
system.membus.snoopTraffic                          0                      
system.membus.snoop_fanout::samples            434534                      
system.membus.snoop_fanout::mean                    0                      
system.membus.snoop_fanout::stdev                   0                      
system.membus.snoop_fanout::underflows              0      0.00%      0.00%
system.membus.snoop_fanout::0                  434534    100.00%    100.00%
system.membus.snoop_fanout::1                       0      0.00%    100.00%
system.membus.snoop_fanout::overflows               0      0.00%    100.00%
system.membus.snoop_fanout::min_value               0                      
system.membus.snoop_fanout::max_value               0                      
system.membus.snoop_fanout::total              434534                      

---------- End Simulation Statistics   ----------
