
---------- Begin Simulation Statistics ----------
sim_seconds                                  0.000129                      
sim_ticks                                   129406500                      
final_tick                                  129406500                      
sim_freq                                 1000000000000                      
host_inst_rate                                  98915                      
host_op_rate                                    99139                      
host_tick_rate                               97456589                      
host_mem_usage                                 408696                      
host_seconds                                     1.32                      
sim_insts                                      131335                      
sim_ops                                        131635                      
system.voltage_domain.voltage                       1                      
system.clk_domain.clock                          1000                      
system.physmem.pwrStateResidencyTicks::UNDEFINED    129406500                      
system.physmem.bytes_read::cpu.inst             54592                      
system.physmem.bytes_read::cpu.data             29632                      
system.physmem.bytes_read::total                84224                      
system.physmem.bytes_inst_read::cpu.inst        54592                      
system.physmem.bytes_inst_read::total           54592                      
system.physmem.num_reads::cpu.inst                853                      
system.physmem.num_reads::cpu.data                463                      
system.physmem.num_reads::total                  1316                      
system.physmem.bw_read::cpu.inst            421864434                      
system.physmem.bw_read::cpu.data            228983860                      
system.physmem.bw_read::total               650848295                      
system.physmem.bw_inst_read::cpu.inst       421864434                      
system.physmem.bw_inst_read::total          421864434                      
system.physmem.bw_total::cpu.inst           421864434                      
system.physmem.bw_total::cpu.data           228983860                      
system.physmem.bw_total::total              650848295                      
system.physmem.readReqs                          1316                      
system.physmem.writeReqs                            0                      
system.physmem.readBursts                        1316                      
system.physmem.writeBursts                          0                      
system.physmem.bytesReadDRAM                    84224                      
system.physmem.bytesReadWrQ                         0                      
system.physmem.bytesWritten                         0                      
system.physmem.bytesReadSys                     84224                      
system.physmem.bytesWrittenSys                      0                      
system.physmem.servicedByWrQ                        0                      
system.physmem.mergedWrBursts                       0                      
system.physmem.neitherReadNorWriteReqs              0                      
system.physmem.perBankRdBursts::0                 115                      
system.physmem.perBankRdBursts::1                 136                      
system.physmem.perBankRdBursts::2                  89                      
system.physmem.perBankRdBursts::3                  94                      
system.physmem.perBankRdBursts::4                  44                      
system.physmem.perBankRdBursts::5                  55                      
system.physmem.perBankRdBursts::6                  41                      
system.physmem.perBankRdBursts::7                  24                      
system.physmem.perBankRdBursts::8                  68                      
system.physmem.perBankRdBursts::9                 104                      
system.physmem.perBankRdBursts::10                157                      
system.physmem.perBankRdBursts::11                130                      
system.physmem.perBankRdBursts::12                107                      
system.physmem.perBankRdBursts::13                 47                      
system.physmem.perBankRdBursts::14                 49                      
system.physmem.perBankRdBursts::15                 56                      
system.physmem.perBankWrBursts::0                   0                      
system.physmem.perBankWrBursts::1                   0                      
system.physmem.perBankWrBursts::2                   0                      
system.physmem.perBankWrBursts::3                   0                      
system.physmem.perBankWrBursts::4                   0                      
system.physmem.perBankWrBursts::5                   0                      
system.physmem.perBankWrBursts::6                   0                      
system.physmem.perBankWrBursts::7                   0                      
system.physmem.perBankWrBursts::8                   0                      
system.physmem.perBankWrBursts::9                   0                      
system.physmem.perBankWrBursts::10                  0                      
system.physmem.perBankWrBursts::11                  0                      
system.physmem.perBankWrBursts::12                  0                      
system.physmem.perBankWrBursts::13                  0                      
system.physmem.perBankWrBursts::14                  0                      
system.physmem.perBankWrBursts::15                  0                      
system.physmem.numRdRetry                           0                      
system.physmem.numWrRetry                           0                      
system.physmem.totGap                       129331000                      
system.physmem.readPktSize::0                       0                      
system.physmem.readPktSize::1                       0                      
system.physmem.readPktSize::2                       0                      
system.physmem.readPktSize::3                       0                      
system.physmem.readPktSize::4                       0                      
system.physmem.readPktSize::5                       0                      
system.physmem.readPktSize::6                    1316                      
system.physmem.writePktSize::0                      0                      
system.physmem.writePktSize::1                      0                      
system.physmem.writePktSize::2                      0                      
system.physmem.writePktSize::3                      0                      
system.physmem.writePktSize::4                      0                      
system.physmem.writePktSize::5                      0                      
system.physmem.writePktSize::6                      0                      
system.physmem.rdQLenPdf::0                       801                      
system.physmem.rdQLenPdf::1                       334                      
system.physmem.rdQLenPdf::2                       126                      
system.physmem.rdQLenPdf::3                        40                      
system.physmem.rdQLenPdf::4                        12                      
system.physmem.rdQLenPdf::5                         3                      
system.physmem.rdQLenPdf::6                         0                      
system.physmem.rdQLenPdf::7                         0                      
system.physmem.rdQLenPdf::8                         0                      
system.physmem.rdQLenPdf::9                         0                      
system.physmem.rdQLenPdf::10                        0                      
system.physmem.rdQLenPdf::11                        0                      
system.physmem.rdQLenPdf::12                        0                      
system.physmem.rdQLenPdf::13                        0                      
system.physmem.rdQLenPdf::14                        0                      
system.physmem.rdQLenPdf::15                        0                      
system.physmem.rdQLenPdf::16                        0                      
system.physmem.rdQLenPdf::17                        0                      
system.physmem.rdQLenPdf::18                        0                      
system.physmem.rdQLenPdf::19                        0                      
system.physmem.rdQLenPdf::20                        0                      
system.physmem.rdQLenPdf::21                        0                      
system.physmem.rdQLenPdf::22                        0                      
system.physmem.rdQLenPdf::23                        0                      
system.physmem.rdQLenPdf::24                        0                      
system.physmem.rdQLenPdf::25                        0                      
system.physmem.rdQLenPdf::26                        0                      
system.physmem.rdQLenPdf::27                        0                      
system.physmem.rdQLenPdf::28                        0                      
system.physmem.rdQLenPdf::29                        0                      
system.physmem.rdQLenPdf::30                        0                      
system.physmem.rdQLenPdf::31                        0                      
system.physmem.wrQLenPdf::0                         0                      
system.physmem.wrQLenPdf::1                         0                      
system.physmem.wrQLenPdf::2                         0                      
system.physmem.wrQLenPdf::3                         0                      
system.physmem.wrQLenPdf::4                         0                      
system.physmem.wrQLenPdf::5                         0                      
system.physmem.wrQLenPdf::6                         0                      
system.physmem.wrQLenPdf::7                         0                      
system.physmem.wrQLenPdf::8                         0                      
system.physmem.wrQLenPdf::9                         0                      
system.physmem.wrQLenPdf::10                        0                      
system.physmem.wrQLenPdf::11                        0                      
system.physmem.wrQLenPdf::12                        0                      
system.physmem.wrQLenPdf::13                        0                      
system.physmem.wrQLenPdf::14                        0                      
system.physmem.wrQLenPdf::15                        0                      
system.physmem.wrQLenPdf::16                        0                      
system.physmem.wrQLenPdf::17                        0                      
system.physmem.wrQLenPdf::18                        0                      
system.physmem.wrQLenPdf::19                        0                      
system.physmem.wrQLenPdf::20                        0                      
system.physmem.wrQLenPdf::21                        0                      
system.physmem.wrQLenPdf::22                        0                      
system.physmem.wrQLenPdf::23                        0                      
system.physmem.wrQLenPdf::24                        0                      
system.physmem.wrQLenPdf::25                        0                      
system.physmem.wrQLenPdf::26                        0                      
system.physmem.wrQLenPdf::27                        0                      
system.physmem.wrQLenPdf::28                        0                      
system.physmem.wrQLenPdf::29                        0                      
system.physmem.wrQLenPdf::30                        0                      
system.physmem.wrQLenPdf::31                        0                      
system.physmem.wrQLenPdf::32                        0                      
system.physmem.wrQLenPdf::33                        0                      
system.physmem.wrQLenPdf::34                        0                      
system.physmem.wrQLenPdf::35                        0                      
system.physmem.wrQLenPdf::36                        0                      
system.physmem.wrQLenPdf::37                        0                      
system.physmem.wrQLenPdf::38                        0                      
system.physmem.wrQLenPdf::39                        0                      
system.physmem.wrQLenPdf::40                        0                      
system.physmem.wrQLenPdf::41                        0                      
system.physmem.wrQLenPdf::42                        0                      
system.physmem.wrQLenPdf::43                        0                      
system.physmem.wrQLenPdf::44                        0                      
system.physmem.wrQLenPdf::45                        0                      
system.physmem.wrQLenPdf::46                        0                      
system.physmem.wrQLenPdf::47                        0                      
system.physmem.wrQLenPdf::48                        0                      
system.physmem.wrQLenPdf::49                        0                      
system.physmem.wrQLenPdf::50                        0                      
system.physmem.wrQLenPdf::51                        0                      
system.physmem.wrQLenPdf::52                        0                      
system.physmem.wrQLenPdf::53                        0                      
system.physmem.wrQLenPdf::54                        0                      
system.physmem.wrQLenPdf::55                        0                      
system.physmem.wrQLenPdf::56                        0                      
system.physmem.wrQLenPdf::57                        0                      
system.physmem.wrQLenPdf::58                        0                      
system.physmem.wrQLenPdf::59                        0                      
system.physmem.wrQLenPdf::60                        0                      
system.physmem.wrQLenPdf::61                        0                      
system.physmem.wrQLenPdf::62                        0                      
system.physmem.wrQLenPdf::63                        0                      
system.physmem.bytesPerActivate::samples          284                      
system.physmem.bytesPerActivate::mean      288.901408                      
system.physmem.bytesPerActivate::gmean     185.799658                      
system.physmem.bytesPerActivate::stdev     282.525268                      
system.physmem.bytesPerActivate::0-127             92     32.39%     32.39%
system.physmem.bytesPerActivate::128-255           69     24.29%     56.69%
system.physmem.bytesPerActivate::256-383           45     15.84%     72.53%
system.physmem.bytesPerActivate::384-511           22      7.74%     80.28%
system.physmem.bytesPerActivate::512-639           14      4.92%     85.21%
system.physmem.bytesPerActivate::640-767            8      2.81%     88.02%
system.physmem.bytesPerActivate::768-895           12      4.22%     92.25%
system.physmem.bytesPerActivate::896-1023            5      1.76%     94.01%
system.physmem.bytesPerActivate::1024-1151           17      5.98%     99.99%
system.physmem.bytesPerActivate::total            284                      
system.physmem.totQLat                       20544000                      
system.physmem.totMemAccLat                  45219000                      
system.physmem.totBusLat                      6580000                      
system.physmem.avgQLat                       15610.94                      
system.physmem.avgBusLat                      5000.00                      
system.physmem.avgMemAccLat                  34360.94                      
system.physmem.avgRdBW                         650.84                      
system.physmem.avgWrBW                           0.00                      
system.physmem.avgRdBWSys                      650.84                      
system.physmem.avgWrBWSys                        0.00                      
system.physmem.peakBW                        12800.00                      
system.physmem.busUtil                           5.08                      
system.physmem.busUtilRead                       5.08                      
system.physmem.busUtilWrite                      0.00                      
system.physmem.avgRdQLen                         1.52                      
system.physmem.avgWrQLen                         0.00                      
system.physmem.readRowHits                       1021                      
system.physmem.writeRowHits                         0                      
system.physmem.readRowHitRate                   77.58                      
system.physmem.writeRowHitRate                    nan                      
system.physmem.avgGap                        98275.83                      
system.physmem.pageHitRate                      77.58                      
system.physmem_0.actEnergy                     906780                      
system.physmem_0.preEnergy                     459195                      
system.physmem_0.readEnergy                   4269720                      
system.physmem_0.writeEnergy                        0                      
system.physmem_0.refreshEnergy                9834240                      
system.physmem_0.actBackEnergy                9187830                      
system.physmem_0.preBackEnergy                 206400                      
system.physmem_0.actPowerDownEnergy          46754820                      
system.physmem_0.prePowerDownEnergy           2376480                      
system.physmem_0.selfRefreshEnergy                  0                      
system.physmem_0.totalEnergy                 73995465                      
system.physmem_0.averagePower              571.806400                      
system.physmem_0.totalIdleTime              107187750                      
system.physmem_0.memoryStateTime::IDLE          95500                      
system.physmem_0.memoryStateTime::REF         4160000                      
system.physmem_0.memoryStateTime::SREF              0                      
system.physmem_0.memoryStateTime::PRE_PDN      6186500                      
system.physmem_0.memoryStateTime::ACT        16427000                      
system.physmem_0.memoryStateTime::ACT_PDN    102537500                      
system.physmem_1.actEnergy                    1199520                      
system.physmem_1.preEnergy                     618585                      
system.physmem_1.readEnergy                   5126520                      
system.physmem_1.writeEnergy                        0                      
system.physmem_1.refreshEnergy                9834240                      
system.physmem_1.actBackEnergy               10909230                      
system.physmem_1.preBackEnergy                 247200                      
system.physmem_1.actPowerDownEnergy          41450400                      
system.physmem_1.prePowerDownEnergy           5352960                      
system.physmem_1.selfRefreshEnergy                  0                      
system.physmem_1.totalEnergy                 74738655                      
system.physmem_1.averagePower              577.549466                      
system.physmem_1.totalIdleTime              104840500                      
system.physmem_1.memoryStateTime::IDLE         200000                      
system.physmem_1.memoryStateTime::REF         4160000                      
system.physmem_1.memoryStateTime::SREF              0                      
system.physmem_1.memoryStateTime::PRE_PDN     13939000                      
system.physmem_1.memoryStateTime::ACT        20194250                      
system.physmem_1.memoryStateTime::ACT_PDN     90913250                      
system.pwrStateResidencyTicks::UNDEFINED    129406500                      
system.cpu.branchPred.lookups                   39206                      
system.cpu.branchPred.condPredicted             26862                      
system.cpu.branchPred.condIncorrect              5391                      
system.cpu.branchPred.BTBLookups                31578                      
system.cpu.branchPred.BTBHits                   15372                      
system.cpu.branchPred.BTBCorrect                    0                      
system.cpu.branchPred.BTBHitPct             48.679460                      
system.cpu.branchPred.usedRAS                       0                      
system.cpu.branchPred.RASInCorrect                  0                      
system.cpu.branchPred.indirectLookups            8755                      
system.cpu.branchPred.indirectHits               4446                      
system.cpu.branchPred.indirectMisses             4309                      
system.cpu.branchPredindirectMispredicted         1801                      
system.cpu_clk_domain.clock                       500                      
system.cpu.dtb.read_hits                            0                      
system.cpu.dtb.read_misses                          0                      
system.cpu.dtb.read_accesses                        0                      
system.cpu.dtb.write_hits                           0                      
system.cpu.dtb.write_misses                         0                      
system.cpu.dtb.write_accesses                       0                      
system.cpu.dtb.hits                                 0                      
system.cpu.dtb.misses                               0                      
system.cpu.dtb.accesses                             0                      
system.cpu.itb.read_hits                            0                      
system.cpu.itb.read_misses                          0                      
system.cpu.itb.read_accesses                        0                      
system.cpu.itb.write_hits                           0                      
system.cpu.itb.write_misses                         0                      
system.cpu.itb.write_accesses                       0                      
system.cpu.itb.hits                                 0                      
system.cpu.itb.misses                               0                      
system.cpu.itb.accesses                             0                      
system.cpu.workload.numSyscalls                    62                      
system.cpu.pwrStateResidencyTicks::ON       129406500                      
system.cpu.numCycles                           258814                      
system.cpu.numWorkItemsStarted                      0                      
system.cpu.numWorkItemsCompleted                    0                      
system.cpu.fetch.icacheStallCycles              44792                      
system.cpu.fetch.Insts                         171616                      
system.cpu.fetch.Branches                       39206                      
system.cpu.fetch.predictedBranches              19818                      
system.cpu.fetch.Cycles                        126965                      
system.cpu.fetch.SquashCycles                   10946                      
system.cpu.fetch.MiscStallCycles                    7                      
system.cpu.fetch.IcacheWaitRetryStallCycles           28                      
system.cpu.fetch.CacheLines                     26377                      
system.cpu.fetch.IcacheSquashes                  1094                      
system.cpu.fetch.rateDist::samples             177265                      
system.cpu.fetch.rateDist::mean              0.970050                      
system.cpu.fetch.rateDist::stdev             0.989668                      
system.cpu.fetch.rateDist::underflows               0      0.00%      0.00%
system.cpu.fetch.rateDist::0                    56941     32.12%     32.12%
system.cpu.fetch.rateDist::1                    88423     49.88%     82.00%
system.cpu.fetch.rateDist::2                    19749     11.14%     93.14%
system.cpu.fetch.rateDist::3                     7708      4.34%     97.49%
system.cpu.fetch.rateDist::4                     2743      1.54%     99.04%
system.cpu.fetch.rateDist::5                      786      0.44%     99.48%
system.cpu.fetch.rateDist::6                      601      0.33%     99.82%
system.cpu.fetch.rateDist::7                      109      0.06%     99.88%
system.cpu.fetch.rateDist::8                      205      0.11%     99.99%
system.cpu.fetch.rateDist::overflows                0      0.00%     99.99%
system.cpu.fetch.rateDist::min_value                0                      
system.cpu.fetch.rateDist::max_value                8                      
system.cpu.fetch.rateDist::total               177265                      
system.cpu.fetch.branchRate                  0.151483                      
system.cpu.fetch.rate                        0.663086                      
system.cpu.decode.IdleCycles                    47519                      
system.cpu.decode.BlockedCycles                 17285                      
system.cpu.decode.RunCycles                    107965                      
system.cpu.decode.UnblockCycles                   574                      
system.cpu.decode.SquashCycles                   3922                      
system.cpu.decode.BranchResolved                15258                      
system.cpu.decode.BranchMispred                  1619                      
system.cpu.decode.DecodedInsts                 160643                      
system.cpu.decode.SquashedInsts                  2753                      
system.cpu.rename.SquashCycles                   3922                      
system.cpu.rename.IdleCycles                    52308                      
system.cpu.rename.BlockCycles                    1510                      
system.cpu.rename.serializeStallCycles          10364                      
system.cpu.rename.RunCycles                    103736                      
system.cpu.rename.UnblockCycles                  5425                      
system.cpu.rename.RenamedInsts                 155779                      
system.cpu.rename.ROBFullEvents                    10                      
system.cpu.rename.IQFullEvents                      1                      
system.cpu.rename.LQFullEvents                   2715                      
system.cpu.rename.SQFullEvents                   2350                      
system.cpu.rename.RenamedOperands              103789                      
system.cpu.rename.RenameLookups                189864                      
system.cpu.rename.int_rename_lookups           189819                      
system.cpu.rename.fp_rename_lookups                45                      
system.cpu.rename.CommittedMaps                 87007                      
system.cpu.rename.UndoneMaps                    16782                      
system.cpu.rename.serializingInsts                423                      
system.cpu.rename.tempSerializingInsts            423                      
system.cpu.rename.skidInsts                      1241                      
system.cpu.memDep0.insertedLoads                35164                      
system.cpu.memDep0.insertedStores               21519                      
system.cpu.memDep0.conflictingLoads               351                      
system.cpu.memDep0.conflictingStores               34                      
system.cpu.iq.iqInstsAdded                     146790                      
system.cpu.iq.iqNonSpecInstsAdded                 743                      
system.cpu.iq.iqInstsIssued                    145125                      
system.cpu.iq.iqSquashedInstsIssued                78                      
system.cpu.iq.iqSquashedInstsExamined           15897                      
system.cpu.iq.iqSquashedOperandsExamined         5961                      
system.cpu.iq.iqSquashedNonSpecRemoved             43                      
system.cpu.iq.issued_per_cycle::samples        177265                      
system.cpu.iq.issued_per_cycle::mean         0.818689                      
system.cpu.iq.issued_per_cycle::stdev        0.942918                      
system.cpu.iq.issued_per_cycle::underflows            0      0.00%      0.00%
system.cpu.iq.issued_per_cycle::0               74132     41.81%     41.81%
system.cpu.iq.issued_per_cycle::1               75052     42.33%     84.15%
system.cpu.iq.issued_per_cycle::2               19250     10.85%     95.01%
system.cpu.iq.issued_per_cycle::3                6249      3.52%     98.54%
system.cpu.iq.issued_per_cycle::4                1460      0.82%     99.36%
system.cpu.iq.issued_per_cycle::5                 311      0.17%     99.54%
system.cpu.iq.issued_per_cycle::6                 470      0.26%     99.80%
system.cpu.iq.issued_per_cycle::7                 117      0.06%     99.87%
system.cpu.iq.issued_per_cycle::8                 224      0.12%     99.99%
system.cpu.iq.issued_per_cycle::overflows            0      0.00%     99.99%
system.cpu.iq.issued_per_cycle::min_value            0                      
system.cpu.iq.issued_per_cycle::max_value            8                      
system.cpu.iq.issued_per_cycle::total          177265                      
system.cpu.iq.fu_full::No_OpClass                   0      0.00%      0.00%
system.cpu.iq.fu_full::IntAlu                      18      4.91%      4.91%
system.cpu.iq.fu_full::IntMult                      0      0.00%      4.91%
system.cpu.iq.fu_full::IntDiv                       0      0.00%      4.91%
system.cpu.iq.fu_full::FloatAdd                     0      0.00%      4.91%
system.cpu.iq.fu_full::FloatCmp                     0      0.00%      4.91%
system.cpu.iq.fu_full::FloatCvt                     0      0.00%      4.91%
system.cpu.iq.fu_full::FloatMult                    0      0.00%      4.91%
system.cpu.iq.fu_full::FloatMultAcc                 0      0.00%      4.91%
system.cpu.iq.fu_full::FloatDiv                     0      0.00%      4.91%
system.cpu.iq.fu_full::FloatMisc                    0      0.00%      4.91%
system.cpu.iq.fu_full::FloatSqrt                    0      0.00%      4.91%
system.cpu.iq.fu_full::SimdAdd                      0      0.00%      4.91%
system.cpu.iq.fu_full::SimdAddAcc                   0      0.00%      4.91%
system.cpu.iq.fu_full::SimdAlu                      0      0.00%      4.91%
system.cpu.iq.fu_full::SimdCmp                      0      0.00%      4.91%
system.cpu.iq.fu_full::SimdCvt                      0      0.00%      4.91%
system.cpu.iq.fu_full::SimdMisc                     0      0.00%      4.91%
system.cpu.iq.fu_full::SimdMult                     0      0.00%      4.91%
system.cpu.iq.fu_full::SimdMultAcc                  0      0.00%      4.91%
system.cpu.iq.fu_full::SimdShift                    0      0.00%      4.91%
system.cpu.iq.fu_full::SimdShiftAcc                 0      0.00%      4.91%
system.cpu.iq.fu_full::SimdSqrt                     0      0.00%      4.91%
system.cpu.iq.fu_full::SimdFloatAdd                 0      0.00%      4.91%
system.cpu.iq.fu_full::SimdFloatAlu                 0      0.00%      4.91%
system.cpu.iq.fu_full::SimdFloatCmp                 0      0.00%      4.91%
system.cpu.iq.fu_full::SimdFloatCvt                 0      0.00%      4.91%
system.cpu.iq.fu_full::SimdFloatDiv                 0      0.00%      4.91%
system.cpu.iq.fu_full::SimdFloatMisc                0      0.00%      4.91%
system.cpu.iq.fu_full::SimdFloatMult                0      0.00%      4.91%
system.cpu.iq.fu_full::SimdFloatMultAcc             0      0.00%      4.91%
system.cpu.iq.fu_full::SimdFloatSqrt                0      0.00%      4.91%
system.cpu.iq.fu_full::MemRead                     63     17.21%     22.13%
system.cpu.iq.fu_full::MemWrite                   283     77.32%     99.45%
system.cpu.iq.fu_full::FloatMemRead                 0      0.00%     99.45%
system.cpu.iq.fu_full::FloatMemWrite                2      0.54%     99.99%
system.cpu.iq.fu_full::IprAccess                    0      0.00%     99.99%
system.cpu.iq.fu_full::InstPrefetch                 0      0.00%     99.99%
system.cpu.iq.FU_type_0::No_OpClass                66      0.04%      0.04%
system.cpu.iq.FU_type_0::IntAlu                 89072     61.37%     61.42%
system.cpu.iq.FU_type_0::IntMult                  167      0.11%     61.53%
system.cpu.iq.FU_type_0::IntDiv                     5      0.00%     61.54%
system.cpu.iq.FU_type_0::FloatAdd                   0      0.00%     61.54%
system.cpu.iq.FU_type_0::FloatCmp                   4      0.00%     61.54%
system.cpu.iq.FU_type_0::FloatCvt                   2      0.00%     61.54%
system.cpu.iq.FU_type_0::FloatMult                  0      0.00%     61.54%
system.cpu.iq.FU_type_0::FloatMultAcc               0      0.00%     61.54%
system.cpu.iq.FU_type_0::FloatDiv                   0      0.00%     61.54%
system.cpu.iq.FU_type_0::FloatMisc                  2      0.00%     61.54%
system.cpu.iq.FU_type_0::FloatSqrt                  0      0.00%     61.54%
system.cpu.iq.FU_type_0::SimdAdd                    0      0.00%     61.54%
system.cpu.iq.FU_type_0::SimdAddAcc                 0      0.00%     61.54%
system.cpu.iq.FU_type_0::SimdAlu                    0      0.00%     61.54%
system.cpu.iq.FU_type_0::SimdCmp                    0      0.00%     61.54%
system.cpu.iq.FU_type_0::SimdCvt                    0      0.00%     61.54%
system.cpu.iq.FU_type_0::SimdMisc                   0      0.00%     61.54%
system.cpu.iq.FU_type_0::SimdMult                   0      0.00%     61.54%
system.cpu.iq.FU_type_0::SimdMultAcc                0      0.00%     61.54%
system.cpu.iq.FU_type_0::SimdShift                  0      0.00%     61.54%
system.cpu.iq.FU_type_0::SimdShiftAcc               0      0.00%     61.54%
system.cpu.iq.FU_type_0::SimdSqrt                   0      0.00%     61.54%
system.cpu.iq.FU_type_0::SimdFloatAdd               0      0.00%     61.54%
system.cpu.iq.FU_type_0::SimdFloatAlu               0      0.00%     61.54%
system.cpu.iq.FU_type_0::SimdFloatCmp               0      0.00%     61.54%
system.cpu.iq.FU_type_0::SimdFloatCvt               0      0.00%     61.54%
system.cpu.iq.FU_type_0::SimdFloatDiv               0      0.00%     61.54%
system.cpu.iq.FU_type_0::SimdFloatMisc              0      0.00%     61.54%
system.cpu.iq.FU_type_0::SimdFloatMult              0      0.00%     61.54%
system.cpu.iq.FU_type_0::SimdFloatMultAcc            0      0.00%     61.54%
system.cpu.iq.FU_type_0::SimdFloatSqrt              0      0.00%     61.54%
system.cpu.iq.FU_type_0::MemRead                34712     23.91%     85.46%
system.cpu.iq.FU_type_0::MemWrite               21053     14.50%     99.97%
system.cpu.iq.FU_type_0::FloatMemRead              23      0.01%     99.98%
system.cpu.iq.FU_type_0::FloatMemWrite             19      0.01%     99.99%
system.cpu.iq.FU_type_0::IprAccess                  0      0.00%     99.99%
system.cpu.iq.FU_type_0::InstPrefetch               0      0.00%     99.99%
system.cpu.iq.FU_type_0::total                 145125                      
system.cpu.iq.rate                           0.560730                      
system.cpu.iq.fu_busy_cnt                         366                      
system.cpu.iq.fu_busy_rate                   0.002521                      
system.cpu.iq.int_inst_queue_reads             467857                      
system.cpu.iq.int_inst_queue_writes            163383                      
system.cpu.iq.int_inst_queue_wakeup_accesses       139581                      
system.cpu.iq.fp_inst_queue_reads                 102                      
system.cpu.iq.fp_inst_queue_writes                 68                      
system.cpu.iq.fp_inst_queue_wakeup_accesses           44                      
system.cpu.iq.vec_inst_queue_reads                  0                      
system.cpu.iq.vec_inst_queue_writes                 0                      
system.cpu.iq.vec_inst_queue_wakeup_accesses            0                      
system.cpu.iq.int_alu_accesses                 145373                      
system.cpu.iq.fp_alu_accesses                      52                      
system.cpu.iq.vec_alu_accesses                      0                      
system.cpu.iew.lsq.thread0.forwLoads              604                      
system.cpu.iew.lsq.thread0.invAddrLoads             0                      
system.cpu.iew.lsq.thread0.squashedLoads         3495                      
system.cpu.iew.lsq.thread0.ignoredResponses           18                      
system.cpu.iew.lsq.thread0.memOrderViolation           21                      
system.cpu.iew.lsq.thread0.squashedStores         1336                      
system.cpu.iew.lsq.thread0.invAddrSwpfs             0                      
system.cpu.iew.lsq.thread0.blockedLoads             0                      
system.cpu.iew.lsq.thread0.rescheduledLoads            0                      
system.cpu.iew.lsq.thread0.cacheBlocked            92                      
system.cpu.iew.iewIdleCycles                        0                      
system.cpu.iew.iewSquashCycles                   3922                      
system.cpu.iew.iewBlockCycles                     720                      
system.cpu.iew.iewUnblockCycles                   449                      
system.cpu.iew.iewDispatchedInsts              147533                      
system.cpu.iew.iewDispSquashedInsts              3819                      
system.cpu.iew.iewDispLoadInsts                 35164                      
system.cpu.iew.iewDispStoreInsts                21519                      
system.cpu.iew.iewDispNonSpecInsts                738                      
system.cpu.iew.iewIQFullEvents                      0                      
system.cpu.iew.iewLSQFullEvents                   448                      
system.cpu.iew.memOrderViolationEvents             21                      
system.cpu.iew.predictedTakenIncorrect           1467                      
system.cpu.iew.predictedNotTakenIncorrect         2763                      
system.cpu.iew.branchMispredicts                 4230                      
system.cpu.iew.iewExecutedInsts                140745                      
system.cpu.iew.iewExecLoadInsts                 33861                      
system.cpu.iew.iewExecSquashedInsts              4380                      
system.cpu.iew.exec_swp                             0                      
system.cpu.iew.exec_nop                             0                      
system.cpu.iew.exec_refs                        54721                      
system.cpu.iew.exec_branches                    30896                      
system.cpu.iew.exec_stores                      20860                      
system.cpu.iew.exec_rate                     0.543807                      
system.cpu.iew.wb_sent                         139854                      
system.cpu.iew.wb_count                        139625                      
system.cpu.iew.wb_producers                     45858                      
system.cpu.iew.wb_consumers                     53732                      
system.cpu.iew.wb_rate                       0.539480                      
system.cpu.iew.wb_fanout                     0.853457                      
system.cpu.commit.commitSquashedInsts           15898                      
system.cpu.commit.commitNonSpecStalls             700                      
system.cpu.commit.branchMispredicts              3840                      
system.cpu.commit.committed_per_cycle::samples       172688                      
system.cpu.commit.committed_per_cycle::mean     0.762270                      
system.cpu.commit.committed_per_cycle::stdev     1.301220                      
system.cpu.commit.committed_per_cycle::underflows            0      0.00%      0.00%
system.cpu.commit.committed_per_cycle::0       100748     58.34%     58.34%
system.cpu.commit.committed_per_cycle::1        44958     26.03%     84.37%
system.cpu.commit.committed_per_cycle::2        10567      6.11%     90.49%
system.cpu.commit.committed_per_cycle::3         9993      5.78%     96.28%
system.cpu.commit.committed_per_cycle::4         2890      1.67%     97.95%
system.cpu.commit.committed_per_cycle::5         1056      0.61%     98.56%
system.cpu.commit.committed_per_cycle::6          362      0.20%     98.77%
system.cpu.commit.committed_per_cycle::7          360      0.20%     98.98%
system.cpu.commit.committed_per_cycle::8         1754      1.01%     99.99%
system.cpu.commit.committed_per_cycle::overflows            0      0.00%     99.99%
system.cpu.commit.committed_per_cycle::min_value            0                      
system.cpu.commit.committed_per_cycle::max_value            8                      
system.cpu.commit.committed_per_cycle::total       172688                      
system.cpu.commit.committedInsts               131335                      
system.cpu.commit.committedOps                 131635                      
system.cpu.commit.swp_count                         0                      
system.cpu.commit.refs                          51852                      
system.cpu.commit.loads                         31669                      
system.cpu.commit.membars                           4                      
system.cpu.commit.branches                      28741                      
system.cpu.commit.vec_insts                         0                      
system.cpu.commit.fp_insts                         40                      
system.cpu.commit.int_insts                    130910                      
system.cpu.commit.function_calls                 7703                      
system.cpu.commit.op_class_0::No_OpClass            4      0.00%      0.00%
system.cpu.commit.op_class_0::IntAlu            79604     60.47%     60.47%
system.cpu.commit.op_class_0::IntMult             164      0.12%     60.60%
system.cpu.commit.op_class_0::IntDiv                4      0.00%     60.60%
system.cpu.commit.op_class_0::FloatAdd              0      0.00%     60.60%
system.cpu.commit.op_class_0::FloatCmp              3      0.00%     60.60%
system.cpu.commit.op_class_0::FloatCvt              2      0.00%     60.60%
system.cpu.commit.op_class_0::FloatMult             0      0.00%     60.60%
system.cpu.commit.op_class_0::FloatMultAcc            0      0.00%     60.60%
system.cpu.commit.op_class_0::FloatDiv              0      0.00%     60.60%
system.cpu.commit.op_class_0::FloatMisc             2      0.00%     60.60%
system.cpu.commit.op_class_0::FloatSqrt             0      0.00%     60.60%
system.cpu.commit.op_class_0::SimdAdd               0      0.00%     60.60%
system.cpu.commit.op_class_0::SimdAddAcc            0      0.00%     60.60%
system.cpu.commit.op_class_0::SimdAlu               0      0.00%     60.60%
system.cpu.commit.op_class_0::SimdCmp               0      0.00%     60.60%
system.cpu.commit.op_class_0::SimdCvt               0      0.00%     60.60%
system.cpu.commit.op_class_0::SimdMisc              0      0.00%     60.60%
system.cpu.commit.op_class_0::SimdMult              0      0.00%     60.60%
system.cpu.commit.op_class_0::SimdMultAcc            0      0.00%     60.60%
system.cpu.commit.op_class_0::SimdShift             0      0.00%     60.60%
system.cpu.commit.op_class_0::SimdShiftAcc            0      0.00%     60.60%
system.cpu.commit.op_class_0::SimdSqrt              0      0.00%     60.60%
system.cpu.commit.op_class_0::SimdFloatAdd            0      0.00%     60.60%
system.cpu.commit.op_class_0::SimdFloatAlu            0      0.00%     60.60%
system.cpu.commit.op_class_0::SimdFloatCmp            0      0.00%     60.60%
system.cpu.commit.op_class_0::SimdFloatCvt            0      0.00%     60.60%
system.cpu.commit.op_class_0::SimdFloatDiv            0      0.00%     60.60%
system.cpu.commit.op_class_0::SimdFloatMisc            0      0.00%     60.60%
system.cpu.commit.op_class_0::SimdFloatMult            0      0.00%     60.60%
system.cpu.commit.op_class_0::SimdFloatMultAcc            0      0.00%     60.60%
system.cpu.commit.op_class_0::SimdFloatSqrt            0      0.00%     60.60%
system.cpu.commit.op_class_0::MemRead           31655     24.04%     84.65%
system.cpu.commit.op_class_0::MemWrite          20164     15.31%     99.97%
system.cpu.commit.op_class_0::FloatMemRead           14      0.01%     99.98%
system.cpu.commit.op_class_0::FloatMemWrite           19      0.01%     99.99%
system.cpu.commit.op_class_0::IprAccess             0      0.00%     99.99%
system.cpu.commit.op_class_0::InstPrefetch            0      0.00%     99.99%
system.cpu.commit.op_class_0::total            131635                      
system.cpu.commit.bw_lim_events                  1754                      
system.cpu.rob.rob_reads                       317674                      
system.cpu.rob.rob_writes                      299652                      
system.cpu.timesIdled                             637                      
system.cpu.idleCycles                           81549                      
system.cpu.committedInsts                      131335                      
system.cpu.committedOps                        131635                      
system.cpu.cpi                               1.970639                      
system.cpu.cpi_total                         1.970639                      
system.cpu.ipc                               0.507449                      
system.cpu.ipc_total                         0.507449                      
system.cpu.int_regfile_reads                   173614                      
system.cpu.int_regfile_writes                   92576                      
system.cpu.fp_regfile_reads                        31                      
system.cpu.fp_regfile_writes                       20                      
system.cpu.misc_regfile_reads                       7                      
system.cpu.misc_regfile_writes                      7                      
system.cpu.dcache.tags.pwrStateResidencyTicks::UNDEFINED    129406500                      
system.cpu.dcache.tags.replacements                 0                      
system.cpu.dcache.tags.tagsinuse           333.804527                      
system.cpu.dcache.tags.total_refs               51510                      
system.cpu.dcache.tags.sampled_refs               464                      
system.cpu.dcache.tags.avg_refs            111.012931                      
system.cpu.dcache.tags.warmup_cycle            183500                      
system.cpu.dcache.tags.occ_blocks::cpu.data   333.804527                      
system.cpu.dcache.tags.occ_percent::cpu.data     0.081495                      
system.cpu.dcache.tags.occ_percent::total     0.081495                      
system.cpu.dcache.tags.occ_task_id_blocks::1024          464                      
system.cpu.dcache.tags.age_task_id_blocks_1024::0           15                      
system.cpu.dcache.tags.age_task_id_blocks_1024::1          215                      
system.cpu.dcache.tags.age_task_id_blocks_1024::2          234                      
system.cpu.dcache.tags.occ_task_id_percent::1024     0.113281                      
system.cpu.dcache.tags.tag_accesses            106962                      
system.cpu.dcache.tags.data_accesses           106962                      
system.cpu.dcache.pwrStateResidencyTicks::UNDEFINED    129406500                      
system.cpu.dcache.ReadReq_hits::cpu.data        32258                      
system.cpu.dcache.ReadReq_hits::total           32258                      
system.cpu.dcache.WriteReq_hits::cpu.data        18581                      
system.cpu.dcache.WriteReq_hits::total          18581                      
system.cpu.dcache.LoadLockedReq_hits::cpu.data          337                      
system.cpu.dcache.LoadLockedReq_hits::total          337                      
system.cpu.dcache.StoreCondReq_hits::cpu.data          334                      
system.cpu.dcache.StoreCondReq_hits::total          334                      
system.cpu.dcache.demand_hits::cpu.data         50839                      
system.cpu.dcache.demand_hits::total            50839                      
system.cpu.dcache.overall_hits::cpu.data        50839                      
system.cpu.dcache.overall_hits::total           50839                      
system.cpu.dcache.ReadReq_misses::cpu.data          468                      
system.cpu.dcache.ReadReq_misses::total           468                      
system.cpu.dcache.WriteReq_misses::cpu.data         1268                      
system.cpu.dcache.WriteReq_misses::total         1268                      
system.cpu.dcache.LoadLockedReq_misses::cpu.data            3                      
system.cpu.dcache.LoadLockedReq_misses::total            3                      
system.cpu.dcache.demand_misses::cpu.data         1736                      
system.cpu.dcache.demand_misses::total           1736                      
system.cpu.dcache.overall_misses::cpu.data         1736                      
system.cpu.dcache.overall_misses::total          1736                      
system.cpu.dcache.ReadReq_miss_latency::cpu.data     35663000                      
system.cpu.dcache.ReadReq_miss_latency::total     35663000                      
system.cpu.dcache.WriteReq_miss_latency::cpu.data     89180471                      
system.cpu.dcache.WriteReq_miss_latency::total     89180471                      
system.cpu.dcache.LoadLockedReq_miss_latency::cpu.data       325500                      
system.cpu.dcache.LoadLockedReq_miss_latency::total       325500                      
system.cpu.dcache.demand_miss_latency::cpu.data    124843471                      
system.cpu.dcache.demand_miss_latency::total    124843471                      
system.cpu.dcache.overall_miss_latency::cpu.data    124843471                      
system.cpu.dcache.overall_miss_latency::total    124843471                      
system.cpu.dcache.ReadReq_accesses::cpu.data        32726                      
system.cpu.dcache.ReadReq_accesses::total        32726                      
system.cpu.dcache.WriteReq_accesses::cpu.data        19849                      
system.cpu.dcache.WriteReq_accesses::total        19849                      
system.cpu.dcache.LoadLockedReq_accesses::cpu.data          340                      
system.cpu.dcache.LoadLockedReq_accesses::total          340                      
system.cpu.dcache.StoreCondReq_accesses::cpu.data          334                      
system.cpu.dcache.StoreCondReq_accesses::total          334                      
system.cpu.dcache.demand_accesses::cpu.data        52575                      
system.cpu.dcache.demand_accesses::total        52575                      
system.cpu.dcache.overall_accesses::cpu.data        52575                      
system.cpu.dcache.overall_accesses::total        52575                      
system.cpu.dcache.ReadReq_miss_rate::cpu.data     0.014300                      
system.cpu.dcache.ReadReq_miss_rate::total     0.014300                      
system.cpu.dcache.WriteReq_miss_rate::cpu.data     0.063882                      
system.cpu.dcache.WriteReq_miss_rate::total     0.063882                      
system.cpu.dcache.LoadLockedReq_miss_rate::cpu.data     0.008823                      
system.cpu.dcache.LoadLockedReq_miss_rate::total     0.008823                      
system.cpu.dcache.demand_miss_rate::cpu.data     0.033019                      
system.cpu.dcache.demand_miss_rate::total     0.033019                      
system.cpu.dcache.overall_miss_rate::cpu.data     0.033019                      
system.cpu.dcache.overall_miss_rate::total     0.033019                      
system.cpu.dcache.ReadReq_avg_miss_latency::cpu.data 76202.991452                      
system.cpu.dcache.ReadReq_avg_miss_latency::total 76202.991452                      
system.cpu.dcache.WriteReq_avg_miss_latency::cpu.data 70331.601735                      
system.cpu.dcache.WriteReq_avg_miss_latency::total 70331.601735                      
system.cpu.dcache.LoadLockedReq_avg_miss_latency::cpu.data       108500                      
system.cpu.dcache.LoadLockedReq_avg_miss_latency::total       108500                      
system.cpu.dcache.demand_avg_miss_latency::cpu.data 71914.441820                      
system.cpu.dcache.demand_avg_miss_latency::total 71914.441820                      
system.cpu.dcache.overall_avg_miss_latency::cpu.data 71914.441820                      
system.cpu.dcache.overall_avg_miss_latency::total 71914.441820                      
system.cpu.dcache.blocked_cycles::no_mshrs         3407                      
system.cpu.dcache.blocked_cycles::no_targets           88                      
system.cpu.dcache.blocked::no_mshrs                50                      
system.cpu.dcache.blocked::no_targets               2                      
system.cpu.dcache.avg_blocked_cycles::no_mshrs    68.139999                      
system.cpu.dcache.avg_blocked_cycles::no_targets           44                      
system.cpu.dcache.ReadReq_mshr_hits::cpu.data          225                      
system.cpu.dcache.ReadReq_mshr_hits::total          225                      
system.cpu.dcache.WriteReq_mshr_hits::cpu.data         1048                      
system.cpu.dcache.WriteReq_mshr_hits::total         1048                      
system.cpu.dcache.LoadLockedReq_mshr_hits::cpu.data            2                      
system.cpu.dcache.LoadLockedReq_mshr_hits::total            2                      
system.cpu.dcache.demand_mshr_hits::cpu.data         1273                      
system.cpu.dcache.demand_mshr_hits::total         1273                      
system.cpu.dcache.overall_mshr_hits::cpu.data         1273                      
system.cpu.dcache.overall_mshr_hits::total         1273                      
system.cpu.dcache.ReadReq_mshr_misses::cpu.data          243                      
system.cpu.dcache.ReadReq_mshr_misses::total          243                      
system.cpu.dcache.WriteReq_mshr_misses::cpu.data          220                      
system.cpu.dcache.WriteReq_mshr_misses::total          220                      
system.cpu.dcache.LoadLockedReq_mshr_misses::cpu.data            1                      
system.cpu.dcache.LoadLockedReq_mshr_misses::total            1                      
system.cpu.dcache.demand_mshr_misses::cpu.data          463                      
system.cpu.dcache.demand_mshr_misses::total          463                      
system.cpu.dcache.overall_mshr_misses::cpu.data          463                      
system.cpu.dcache.overall_mshr_misses::total          463                      
system.cpu.dcache.ReadReq_mshr_miss_latency::cpu.data     21660500                      
system.cpu.dcache.ReadReq_mshr_miss_latency::total     21660500                      
system.cpu.dcache.WriteReq_mshr_miss_latency::cpu.data     19445497                      
system.cpu.dcache.WriteReq_mshr_miss_latency::total     19445497                      
system.cpu.dcache.LoadLockedReq_mshr_miss_latency::cpu.data       105500                      
system.cpu.dcache.LoadLockedReq_mshr_miss_latency::total       105500                      
system.cpu.dcache.demand_mshr_miss_latency::cpu.data     41105997                      
system.cpu.dcache.demand_mshr_miss_latency::total     41105997                      
system.cpu.dcache.overall_mshr_miss_latency::cpu.data     41105997                      
system.cpu.dcache.overall_mshr_miss_latency::total     41105997                      
system.cpu.dcache.ReadReq_mshr_miss_rate::cpu.data     0.007425                      
system.cpu.dcache.ReadReq_mshr_miss_rate::total     0.007425                      
system.cpu.dcache.WriteReq_mshr_miss_rate::cpu.data     0.011083                      
system.cpu.dcache.WriteReq_mshr_miss_rate::total     0.011083                      
system.cpu.dcache.LoadLockedReq_mshr_miss_rate::cpu.data     0.002941                      
system.cpu.dcache.LoadLockedReq_mshr_miss_rate::total     0.002941                      
system.cpu.dcache.demand_mshr_miss_rate::cpu.data     0.008806                      
system.cpu.dcache.demand_mshr_miss_rate::total     0.008806                      
system.cpu.dcache.overall_mshr_miss_rate::cpu.data     0.008806                      
system.cpu.dcache.overall_mshr_miss_rate::total     0.008806                      
system.cpu.dcache.ReadReq_avg_mshr_miss_latency::cpu.data 89137.860082                      
system.cpu.dcache.ReadReq_avg_mshr_miss_latency::total 89137.860082                      
system.cpu.dcache.WriteReq_avg_mshr_miss_latency::cpu.data 88388.622727                      
system.cpu.dcache.WriteReq_avg_mshr_miss_latency::total 88388.622727                      
system.cpu.dcache.LoadLockedReq_avg_mshr_miss_latency::cpu.data       105500                      
system.cpu.dcache.LoadLockedReq_avg_mshr_miss_latency::total       105500                      
system.cpu.dcache.demand_avg_mshr_miss_latency::cpu.data 88781.850971                      
system.cpu.dcache.demand_avg_mshr_miss_latency::total 88781.850971                      
system.cpu.dcache.overall_avg_mshr_miss_latency::cpu.data 88781.850971                      
system.cpu.dcache.overall_avg_mshr_miss_latency::total 88781.850971                      
system.cpu.icache.tags.pwrStateResidencyTicks::UNDEFINED    129406500                      
system.cpu.icache.tags.replacements                68                      
system.cpu.icache.tags.tagsinuse           493.897001                      
system.cpu.icache.tags.total_refs               25340                      
system.cpu.icache.tags.sampled_refs               864                      
system.cpu.icache.tags.avg_refs             29.328703                      
system.cpu.icache.tags.warmup_cycle             87500                      
system.cpu.icache.tags.occ_blocks::cpu.inst   493.897001                      
system.cpu.icache.tags.occ_percent::cpu.inst     0.241160                      
system.cpu.icache.tags.occ_percent::total     0.241160                      
system.cpu.icache.tags.occ_task_id_blocks::1024          796                      
system.cpu.icache.tags.age_task_id_blocks_1024::0           55                      
system.cpu.icache.tags.age_task_id_blocks_1024::1          480                      
system.cpu.icache.tags.age_task_id_blocks_1024::2          261                      
system.cpu.icache.tags.occ_task_id_percent::1024     0.388671                      
system.cpu.icache.tags.tag_accesses             53616                      
system.cpu.icache.tags.data_accesses            53616                      
system.cpu.icache.pwrStateResidencyTicks::UNDEFINED    129406500                      
system.cpu.icache.ReadReq_hits::cpu.inst        25340                      
system.cpu.icache.ReadReq_hits::total           25340                      
system.cpu.icache.demand_hits::cpu.inst         25340                      
system.cpu.icache.demand_hits::total            25340                      
system.cpu.icache.overall_hits::cpu.inst        25340                      
system.cpu.icache.overall_hits::total           25340                      
system.cpu.icache.ReadReq_misses::cpu.inst         1036                      
system.cpu.icache.ReadReq_misses::total          1036                      
system.cpu.icache.demand_misses::cpu.inst         1036                      
system.cpu.icache.demand_misses::total           1036                      
system.cpu.icache.overall_misses::cpu.inst         1036                      
system.cpu.icache.overall_misses::total          1036                      
system.cpu.icache.ReadReq_miss_latency::cpu.inst     84338499                      
system.cpu.icache.ReadReq_miss_latency::total     84338499                      
system.cpu.icache.demand_miss_latency::cpu.inst     84338499                      
system.cpu.icache.demand_miss_latency::total     84338499                      
system.cpu.icache.overall_miss_latency::cpu.inst     84338499                      
system.cpu.icache.overall_miss_latency::total     84338499                      
system.cpu.icache.ReadReq_accesses::cpu.inst        26376                      
system.cpu.icache.ReadReq_accesses::total        26376                      
system.cpu.icache.demand_accesses::cpu.inst        26376                      
system.cpu.icache.demand_accesses::total        26376                      
system.cpu.icache.overall_accesses::cpu.inst        26376                      
system.cpu.icache.overall_accesses::total        26376                      
system.cpu.icache.ReadReq_miss_rate::cpu.inst     0.039278                      
system.cpu.icache.ReadReq_miss_rate::total     0.039278                      
system.cpu.icache.demand_miss_rate::cpu.inst     0.039278                      
system.cpu.icache.demand_miss_rate::total     0.039278                      
system.cpu.icache.overall_miss_rate::cpu.inst     0.039278                      
system.cpu.icache.overall_miss_rate::total     0.039278                      
system.cpu.icache.ReadReq_avg_miss_latency::cpu.inst 81407.817567                      
system.cpu.icache.ReadReq_avg_miss_latency::total 81407.817567                      
system.cpu.icache.demand_avg_miss_latency::cpu.inst 81407.817567                      
system.cpu.icache.demand_avg_miss_latency::total 81407.817567                      
system.cpu.icache.overall_avg_miss_latency::cpu.inst 81407.817567                      
system.cpu.icache.overall_avg_miss_latency::total 81407.817567                      
system.cpu.icache.blocked_cycles::no_mshrs          720                      
system.cpu.icache.blocked_cycles::no_targets            0                      
system.cpu.icache.blocked::no_mshrs                 8                      
system.cpu.icache.blocked::no_targets               0                      
system.cpu.icache.avg_blocked_cycles::no_mshrs           90                      
system.cpu.icache.avg_blocked_cycles::no_targets          nan                      
system.cpu.icache.writebacks::writebacks           68                      
system.cpu.icache.writebacks::total                68                      
system.cpu.icache.ReadReq_mshr_hits::cpu.inst          171                      
system.cpu.icache.ReadReq_mshr_hits::total          171                      
system.cpu.icache.demand_mshr_hits::cpu.inst          171                      
system.cpu.icache.demand_mshr_hits::total          171                      
system.cpu.icache.overall_mshr_hits::cpu.inst          171                      
system.cpu.icache.overall_mshr_hits::total          171                      
system.cpu.icache.ReadReq_mshr_misses::cpu.inst          865                      
system.cpu.icache.ReadReq_mshr_misses::total          865                      
system.cpu.icache.demand_mshr_misses::cpu.inst          865                      
system.cpu.icache.demand_mshr_misses::total          865                      
system.cpu.icache.overall_mshr_misses::cpu.inst          865                      
system.cpu.icache.overall_mshr_misses::total          865                      
system.cpu.icache.ReadReq_mshr_miss_latency::cpu.inst     73386999                      
system.cpu.icache.ReadReq_mshr_miss_latency::total     73386999                      
system.cpu.icache.demand_mshr_miss_latency::cpu.inst     73386999                      
system.cpu.icache.demand_mshr_miss_latency::total     73386999                      
system.cpu.icache.overall_mshr_miss_latency::cpu.inst     73386999                      
system.cpu.icache.overall_mshr_miss_latency::total     73386999                      
system.cpu.icache.ReadReq_mshr_miss_rate::cpu.inst     0.032794                      
system.cpu.icache.ReadReq_mshr_miss_rate::total     0.032794                      
system.cpu.icache.demand_mshr_miss_rate::cpu.inst     0.032794                      
system.cpu.icache.demand_mshr_miss_rate::total     0.032794                      
system.cpu.icache.overall_mshr_miss_rate::cpu.inst     0.032794                      
system.cpu.icache.overall_mshr_miss_rate::total     0.032794                      
system.cpu.icache.ReadReq_avg_mshr_miss_latency::cpu.inst 84840.461271                      
system.cpu.icache.ReadReq_avg_mshr_miss_latency::total 84840.461271                      
system.cpu.icache.demand_avg_mshr_miss_latency::cpu.inst 84840.461271                      
system.cpu.icache.demand_avg_mshr_miss_latency::total 84840.461271                      
system.cpu.icache.overall_avg_mshr_miss_latency::cpu.inst 84840.461271                      
system.cpu.icache.overall_avg_mshr_miss_latency::total 84840.461271                      
system.cpu.l2cache.tags.pwrStateResidencyTicks::UNDEFINED    129406500                      
system.cpu.l2cache.tags.replacements                0                      
system.cpu.l2cache.tags.tagsinuse          853.706019                      
system.cpu.l2cache.tags.total_refs                 81                      
system.cpu.l2cache.tags.sampled_refs             1315                      
system.cpu.l2cache.tags.avg_refs             0.061596                      
system.cpu.l2cache.tags.warmup_cycle            77000                      
system.cpu.l2cache.tags.occ_blocks::cpu.inst   520.277809                      
system.cpu.l2cache.tags.occ_blocks::cpu.data   333.428209                      
system.cpu.l2cache.tags.occ_percent::cpu.inst     0.015877                      
system.cpu.l2cache.tags.occ_percent::cpu.data     0.010175                      
system.cpu.l2cache.tags.occ_percent::total     0.026053                      
system.cpu.l2cache.tags.occ_task_id_blocks::1024         1315                      
system.cpu.l2cache.tags.age_task_id_blocks_1024::0           67                      
system.cpu.l2cache.tags.age_task_id_blocks_1024::1          697                      
system.cpu.l2cache.tags.age_task_id_blocks_1024::2          551                      
system.cpu.l2cache.tags.occ_task_id_percent::1024     0.040130                      
system.cpu.l2cache.tags.tag_accesses            12491                      
system.cpu.l2cache.tags.data_accesses           12491                      
system.cpu.l2cache.pwrStateResidencyTicks::UNDEFINED    129406500                      
system.cpu.l2cache.WritebackClean_hits::writebacks           68                      
system.cpu.l2cache.WritebackClean_hits::total           68                      
system.cpu.l2cache.ReadCleanReq_hits::cpu.inst           12                      
system.cpu.l2cache.ReadCleanReq_hits::total           12                      
system.cpu.l2cache.ReadSharedReq_hits::cpu.data            1                      
system.cpu.l2cache.ReadSharedReq_hits::total            1                      
system.cpu.l2cache.demand_hits::cpu.inst           12                      
system.cpu.l2cache.demand_hits::cpu.data            1                      
system.cpu.l2cache.demand_hits::total              13                      
system.cpu.l2cache.overall_hits::cpu.inst           12                      
system.cpu.l2cache.overall_hits::cpu.data            1                      
system.cpu.l2cache.overall_hits::total             13                      
system.cpu.l2cache.ReadExReq_misses::cpu.data          220                      
system.cpu.l2cache.ReadExReq_misses::total          220                      
system.cpu.l2cache.ReadCleanReq_misses::cpu.inst          853                      
system.cpu.l2cache.ReadCleanReq_misses::total          853                      
system.cpu.l2cache.ReadSharedReq_misses::cpu.data          243                      
system.cpu.l2cache.ReadSharedReq_misses::total          243                      
system.cpu.l2cache.demand_misses::cpu.inst          853                      
system.cpu.l2cache.demand_misses::cpu.data          463                      
system.cpu.l2cache.demand_misses::total          1316                      
system.cpu.l2cache.overall_misses::cpu.inst          853                      
system.cpu.l2cache.overall_misses::cpu.data          463                      
system.cpu.l2cache.overall_misses::total         1316                      
system.cpu.l2cache.ReadExReq_miss_latency::cpu.data     19109500                      
system.cpu.l2cache.ReadExReq_miss_latency::total     19109500                      
system.cpu.l2cache.ReadCleanReq_miss_latency::cpu.inst     71957500                      
system.cpu.l2cache.ReadCleanReq_miss_latency::total     71957500                      
system.cpu.l2cache.ReadSharedReq_miss_latency::cpu.data     21383000                      
system.cpu.l2cache.ReadSharedReq_miss_latency::total     21383000                      
system.cpu.l2cache.demand_miss_latency::cpu.inst     71957500                      
system.cpu.l2cache.demand_miss_latency::cpu.data     40492500                      
system.cpu.l2cache.demand_miss_latency::total    112450000                      
system.cpu.l2cache.overall_miss_latency::cpu.inst     71957500                      
system.cpu.l2cache.overall_miss_latency::cpu.data     40492500                      
system.cpu.l2cache.overall_miss_latency::total    112450000                      
system.cpu.l2cache.WritebackClean_accesses::writebacks           68                      
system.cpu.l2cache.WritebackClean_accesses::total           68                      
system.cpu.l2cache.ReadExReq_accesses::cpu.data          220                      
system.cpu.l2cache.ReadExReq_accesses::total          220                      
system.cpu.l2cache.ReadCleanReq_accesses::cpu.inst          865                      
system.cpu.l2cache.ReadCleanReq_accesses::total          865                      
system.cpu.l2cache.ReadSharedReq_accesses::cpu.data          244                      
system.cpu.l2cache.ReadSharedReq_accesses::total          244                      
system.cpu.l2cache.demand_accesses::cpu.inst          865                      
system.cpu.l2cache.demand_accesses::cpu.data          464                      
system.cpu.l2cache.demand_accesses::total         1329                      
system.cpu.l2cache.overall_accesses::cpu.inst          865                      
system.cpu.l2cache.overall_accesses::cpu.data          464                      
system.cpu.l2cache.overall_accesses::total         1329                      
system.cpu.l2cache.ReadExReq_miss_rate::cpu.data            1                      
system.cpu.l2cache.ReadExReq_miss_rate::total            1                      
system.cpu.l2cache.ReadCleanReq_miss_rate::cpu.inst     0.986127                      
system.cpu.l2cache.ReadCleanReq_miss_rate::total     0.986127                      
system.cpu.l2cache.ReadSharedReq_miss_rate::cpu.data     0.995901                      
system.cpu.l2cache.ReadSharedReq_miss_rate::total     0.995901                      
system.cpu.l2cache.demand_miss_rate::cpu.inst     0.986127                      
system.cpu.l2cache.demand_miss_rate::cpu.data     0.997844                      
system.cpu.l2cache.demand_miss_rate::total     0.990218                      
system.cpu.l2cache.overall_miss_rate::cpu.inst     0.986127                      
system.cpu.l2cache.overall_miss_rate::cpu.data     0.997844                      
system.cpu.l2cache.overall_miss_rate::total     0.990218                      
system.cpu.l2cache.ReadExReq_avg_miss_latency::cpu.data 86861.363636                      
system.cpu.l2cache.ReadExReq_avg_miss_latency::total 86861.363636                      
system.cpu.l2cache.ReadCleanReq_avg_miss_latency::cpu.inst 84358.147713                      
system.cpu.l2cache.ReadCleanReq_avg_miss_latency::total 84358.147713                      
system.cpu.l2cache.ReadSharedReq_avg_miss_latency::cpu.data 87995.884773                      
system.cpu.l2cache.ReadSharedReq_avg_miss_latency::total 87995.884773                      
system.cpu.l2cache.demand_avg_miss_latency::cpu.inst 84358.147713                      
system.cpu.l2cache.demand_avg_miss_latency::cpu.data 87456.803455                      
system.cpu.l2cache.demand_avg_miss_latency::total 85448.328267                      
system.cpu.l2cache.overall_avg_miss_latency::cpu.inst 84358.147713                      
system.cpu.l2cache.overall_avg_miss_latency::cpu.data 87456.803455                      
system.cpu.l2cache.overall_avg_miss_latency::total 85448.328267                      
system.cpu.l2cache.blocked_cycles::no_mshrs            0                      
system.cpu.l2cache.blocked_cycles::no_targets            0                      
system.cpu.l2cache.blocked::no_mshrs                0                      
system.cpu.l2cache.blocked::no_targets              0                      
system.cpu.l2cache.avg_blocked_cycles::no_mshrs          nan                      
system.cpu.l2cache.avg_blocked_cycles::no_targets          nan                      
system.cpu.l2cache.ReadExReq_mshr_misses::cpu.data          220                      
system.cpu.l2cache.ReadExReq_mshr_misses::total          220                      
system.cpu.l2cache.ReadCleanReq_mshr_misses::cpu.inst          853                      
system.cpu.l2cache.ReadCleanReq_mshr_misses::total          853                      
system.cpu.l2cache.ReadSharedReq_mshr_misses::cpu.data          243                      
system.cpu.l2cache.ReadSharedReq_mshr_misses::total          243                      
system.cpu.l2cache.demand_mshr_misses::cpu.inst          853                      
system.cpu.l2cache.demand_mshr_misses::cpu.data          463                      
system.cpu.l2cache.demand_mshr_misses::total         1316                      
system.cpu.l2cache.overall_mshr_misses::cpu.inst          853                      
system.cpu.l2cache.overall_mshr_misses::cpu.data          463                      
system.cpu.l2cache.overall_mshr_misses::total         1316                      
system.cpu.l2cache.ReadExReq_mshr_miss_latency::cpu.data     16909500                      
system.cpu.l2cache.ReadExReq_mshr_miss_latency::total     16909500                      
system.cpu.l2cache.ReadCleanReq_mshr_miss_latency::cpu.inst     63437500                      
system.cpu.l2cache.ReadCleanReq_mshr_miss_latency::total     63437500                      
system.cpu.l2cache.ReadSharedReq_mshr_miss_latency::cpu.data     18953000                      
system.cpu.l2cache.ReadSharedReq_mshr_miss_latency::total     18953000                      
system.cpu.l2cache.demand_mshr_miss_latency::cpu.inst     63437500                      
system.cpu.l2cache.demand_mshr_miss_latency::cpu.data     35862500                      
system.cpu.l2cache.demand_mshr_miss_latency::total     99300000                      
system.cpu.l2cache.overall_mshr_miss_latency::cpu.inst     63437500                      
system.cpu.l2cache.overall_mshr_miss_latency::cpu.data     35862500                      
system.cpu.l2cache.overall_mshr_miss_latency::total     99300000                      
system.cpu.l2cache.ReadExReq_mshr_miss_rate::cpu.data            1                      
system.cpu.l2cache.ReadExReq_mshr_miss_rate::total            1                      
system.cpu.l2cache.ReadCleanReq_mshr_miss_rate::cpu.inst     0.986127                      
system.cpu.l2cache.ReadCleanReq_mshr_miss_rate::total     0.986127                      
system.cpu.l2cache.ReadSharedReq_mshr_miss_rate::cpu.data     0.995901                      
system.cpu.l2cache.ReadSharedReq_mshr_miss_rate::total     0.995901                      
system.cpu.l2cache.demand_mshr_miss_rate::cpu.inst     0.986127                      
system.cpu.l2cache.demand_mshr_miss_rate::cpu.data     0.997844                      
system.cpu.l2cache.demand_mshr_miss_rate::total     0.990218                      
system.cpu.l2cache.overall_mshr_miss_rate::cpu.inst     0.986127                      
system.cpu.l2cache.overall_mshr_miss_rate::cpu.data     0.997844                      
system.cpu.l2cache.overall_mshr_miss_rate::total     0.990218                      
system.cpu.l2cache.ReadExReq_avg_mshr_miss_latency::cpu.data 76861.363636                      
system.cpu.l2cache.ReadExReq_avg_mshr_miss_latency::total 76861.363636                      
system.cpu.l2cache.ReadCleanReq_avg_mshr_miss_latency::cpu.inst 74369.871043                      
system.cpu.l2cache.ReadCleanReq_avg_mshr_miss_latency::total 74369.871043                      
system.cpu.l2cache.ReadSharedReq_avg_mshr_miss_latency::cpu.data 77995.884773                      
system.cpu.l2cache.ReadSharedReq_avg_mshr_miss_latency::total 77995.884773                      
system.cpu.l2cache.demand_avg_mshr_miss_latency::cpu.inst 74369.871043                      
system.cpu.l2cache.demand_avg_mshr_miss_latency::cpu.data 77456.803455                      
system.cpu.l2cache.demand_avg_mshr_miss_latency::total 75455.927051                      
system.cpu.l2cache.overall_avg_mshr_miss_latency::cpu.inst 74369.871043                      
system.cpu.l2cache.overall_avg_mshr_miss_latency::cpu.data 77456.803455                      
system.cpu.l2cache.overall_avg_mshr_miss_latency::total 75455.927051                      
system.cpu.toL2Bus.snoop_filter.tot_requests         1397                      
system.cpu.toL2Bus.snoop_filter.hit_single_requests           69                      
system.cpu.toL2Bus.snoop_filter.hit_multi_requests            0                      
system.cpu.toL2Bus.snoop_filter.tot_snoops            0                      
system.cpu.toL2Bus.snoop_filter.hit_single_snoops            0                      
system.cpu.toL2Bus.snoop_filter.hit_multi_snoops            0                      
system.cpu.toL2Bus.pwrStateResidencyTicks::UNDEFINED    129406500                      
system.cpu.toL2Bus.trans_dist::ReadResp          1108                      
system.cpu.toL2Bus.trans_dist::WritebackClean           68                      
system.cpu.toL2Bus.trans_dist::ReadExReq          220                      
system.cpu.toL2Bus.trans_dist::ReadExResp          220                      
system.cpu.toL2Bus.trans_dist::ReadCleanReq          865                      
system.cpu.toL2Bus.trans_dist::ReadSharedReq          244                      
system.cpu.toL2Bus.pkt_count_system.cpu.icache.mem_side::system.cpu.l2cache.cpu_side         1797                      
system.cpu.toL2Bus.pkt_count_system.cpu.dcache.mem_side::system.cpu.l2cache.cpu_side          928                      
system.cpu.toL2Bus.pkt_count::total              2725                      
system.cpu.toL2Bus.pkt_size_system.cpu.icache.mem_side::system.cpu.l2cache.cpu_side        59648                      
system.cpu.toL2Bus.pkt_size_system.cpu.dcache.mem_side::system.cpu.l2cache.cpu_side        29696                      
system.cpu.toL2Bus.pkt_size::total              89344                      
system.cpu.toL2Bus.snoops                           0                      
system.cpu.toL2Bus.snoopTraffic                     0                      
system.cpu.toL2Bus.snoop_fanout::samples         1329                      
system.cpu.toL2Bus.snoop_fanout::mean        0.000752                      
system.cpu.toL2Bus.snoop_fanout::stdev       0.027430                      
system.cpu.toL2Bus.snoop_fanout::underflows            0      0.00%      0.00%
system.cpu.toL2Bus.snoop_fanout::0               1328     99.92%     99.92%
system.cpu.toL2Bus.snoop_fanout::1                  1      0.07%     99.99%
system.cpu.toL2Bus.snoop_fanout::2                  0      0.00%     99.99%
system.cpu.toL2Bus.snoop_fanout::overflows            0      0.00%     99.99%
system.cpu.toL2Bus.snoop_fanout::min_value            0                      
system.cpu.toL2Bus.snoop_fanout::max_value            1                      
system.cpu.toL2Bus.snoop_fanout::total           1329                      
system.cpu.toL2Bus.reqLayer0.occupancy         766500                      
system.cpu.toL2Bus.reqLayer0.utilization          0.5                      
system.cpu.toL2Bus.respLayer0.occupancy       1296000                      
system.cpu.toL2Bus.respLayer0.utilization          1.0                      
system.cpu.toL2Bus.respLayer1.occupancy        696000                      
system.cpu.toL2Bus.respLayer1.utilization          0.5                      
system.membus.snoop_filter.tot_requests          1316                      
system.membus.snoop_filter.hit_single_requests            0                      
system.membus.snoop_filter.hit_multi_requests            0                      
system.membus.snoop_filter.tot_snoops               0                      
system.membus.snoop_filter.hit_single_snoops            0                      
system.membus.snoop_filter.hit_multi_snoops            0                      
system.membus.pwrStateResidencyTicks::UNDEFINED    129406500                      
system.membus.trans_dist::ReadResp               1095                      
system.membus.trans_dist::ReadExReq               220                      
system.membus.trans_dist::ReadExResp              220                      
system.membus.trans_dist::ReadSharedReq          1096                      
system.membus.pkt_count_system.cpu.l2cache.mem_side::system.physmem.port         2631                      
system.membus.pkt_count::total                   2631                      
system.membus.pkt_size_system.cpu.l2cache.mem_side::system.physmem.port        84160                      
system.membus.pkt_size::total                   84160                      
system.membus.snoops                                0                      
system.membus.snoopTraffic                          0                      
system.membus.snoop_fanout::samples              1316                      
system.membus.snoop_fanout::mean                    0                      
system.membus.snoop_fanout::stdev                  -0                      
system.membus.snoop_fanout::underflows              0      0.00%      0.00%
system.membus.snoop_fanout::0                    1316    100.00%    100.00%
system.membus.snoop_fanout::1                       0      0.00%    100.00%
system.membus.snoop_fanout::overflows               0      0.00%    100.00%
system.membus.snoop_fanout::min_value               0                      
system.membus.snoop_fanout::max_value               0                      
system.membus.snoop_fanout::total                1316                      
system.membus.reqLayer0.occupancy             1608500                      
system.membus.reqLayer0.utilization               1.2                      
system.membus.respLayer1.occupancy            6976250                      
system.membus.respLayer1.utilization              5.3                      

---------- End Simulation Statistics   ----------
