Redirecting stdout to build/RISCV/tests/opt/quick/se/02.insttest/riscv/linux-rv64a/simple-atomic/simout
Redirecting stderr to build/RISCV/tests/opt/quick/se/02.insttest/riscv/linux-rv64a/simple-atomic/simerr
gem5 Simulator System.  http://gem5.org
gem5 is copyrighted software; use the --copyright option for details.

gem5 compiled Apr 12 2018 13:47:37
gem5 started Apr 12 2018 13:55:34
gem5 executing on localvm.commsolid.com, pid 4851
command line: /home/rscheffel/projects/gem5_cc/build/RISCV/gem5.opt -d build/RISCV/tests/opt/quick/se/02.insttest/riscv/linux-rv64a/simple-atomic --stats-file 'text://stats.txt?desc=False' -re /home/rscheffel/projects/gem5_cc/tests/testing/../run.py quick/se/02.insttest/riscv/linux-rv64a/simple-atomic

Global frequency set at 1000000000000 ticks per second
lr.w/sc.w: PASS
sc.w, no preceding lr.d: PASS
amoswap.w: PASS
amoswap.w, sign extend: PASS
amoswap.w, truncate: PASS
amoadd.w: PASS
amoadd.w, truncate/overflow: PASS
amoadd.w, sign extend: PASS
amoxor.w, truncate: PASS
amoxor.w, sign extend: PASS
amoand.w, truncate: PASS
amoand.w, sign extend: PASS
amoor.w, truncate: PASS
amoor.w, sign extend: PASS
amomin.w, truncate: PASS
amomin.w, sign extend: PASS
amomax.w, truncate: PASS
amomax.w, sign extend: PASS
amominu.w, truncate: PASS
amominu.w, sign extend: PASS
amomaxu.w, truncate: PASS
amomaxu.w, sign extend: PASS
lr.d/sc.d: PASS
sc.d, no preceding lr.d: PASS
amoswap.d: PASS
amoadd.d: PASS
amoadd.d, overflow: PASS
amoxor.d (1): PASS
amoxor.d (0): PASS
amoand.d: PASS
amoor.d: PASS
amomin.d: PASS
amomax.d: PASS
amominu.d: PASS
amomaxu.d: PASS
Exiting @ tick 68563500 because exiting with last active thread context
