
---------- Begin Simulation Statistics ----------
sim_seconds                                  0.000728                      
sim_ticks                                   728819500                      
final_tick                                  728819500                      
sim_freq                                 1000000000000                      
host_inst_rate                                 310498                      
host_op_rate                                   311444                      
host_tick_rate                              565116605                      
host_mem_usage                                 401328                      
host_seconds                                     1.28                      
sim_insts                                      400425                      
sim_ops                                        401656                      
system.voltage_domain.voltage                       1                      
system.clk_domain.clock                          1000                      
system.physmem.pwrStateResidencyTicks::UNDEFINED    728819500                      
system.physmem.bytes_read::cpu.inst             67072                      
system.physmem.bytes_read::cpu.data             33792                      
system.physmem.bytes_read::total               100864                      
system.physmem.bytes_inst_read::cpu.inst        67072                      
system.physmem.bytes_inst_read::total           67072                      
system.physmem.num_reads::cpu.inst               1048                      
system.physmem.num_reads::cpu.data                528                      
system.physmem.num_reads::total                  1576                      
system.physmem.bw_read::cpu.inst             92028273                      
system.physmem.bw_read::cpu.data             46365389                      
system.physmem.bw_read::total               138393662                      
system.physmem.bw_inst_read::cpu.inst        92028273                      
system.physmem.bw_inst_read::total           92028273                      
system.physmem.bw_total::cpu.inst            92028273                      
system.physmem.bw_total::cpu.data            46365389                      
system.physmem.bw_total::total              138393662                      
system.pwrStateResidencyTicks::UNDEFINED    728819500                      
system.cpu_clk_domain.clock                       500                      
system.cpu.dtb.read_hits                            0                      
system.cpu.dtb.read_misses                          0                      
system.cpu.dtb.read_accesses                        0                      
system.cpu.dtb.write_hits                           0                      
system.cpu.dtb.write_misses                         0                      
system.cpu.dtb.write_accesses                       0                      
system.cpu.dtb.hits                                 0                      
system.cpu.dtb.misses                               0                      
system.cpu.dtb.accesses                             0                      
system.cpu.itb.read_hits                            0                      
system.cpu.itb.read_misses                          0                      
system.cpu.itb.read_accesses                        0                      
system.cpu.itb.write_hits                           0                      
system.cpu.itb.write_misses                         0                      
system.cpu.itb.write_accesses                       0                      
system.cpu.itb.hits                                 0                      
system.cpu.itb.misses                               0                      
system.cpu.itb.accesses                             0                      
system.cpu.workload.numSyscalls                   220                      
system.cpu.pwrStateResidencyTicks::ON       728819500                      
system.cpu.numCycles                          1457639                      
system.cpu.numWorkItemsStarted                      0                      
system.cpu.numWorkItemsCompleted                    0                      
system.cpu.committedInsts                      400425                      
system.cpu.committedOps                        401656                      
system.cpu.num_int_alu_accesses                399608                      
system.cpu.num_fp_alu_accesses                   1229                      
system.cpu.num_vec_alu_accesses                     0                      
system.cpu.num_func_calls                       22534                      
system.cpu.num_conditional_control_insts        65010                      
system.cpu.num_int_insts                       399608                      
system.cpu.num_fp_insts                          1229                      
system.cpu.num_vec_insts                            0                      
system.cpu.num_int_register_reads              504092                      
system.cpu.num_int_register_writes             266150                      
system.cpu.num_fp_register_reads                  988                      
system.cpu.num_fp_register_writes                 800                      
system.cpu.num_vec_register_reads                   0                      
system.cpu.num_vec_register_writes                  0                      
system.cpu.num_mem_refs                        163360                      
system.cpu.num_load_insts                      101680                      
system.cpu.num_store_insts                      61680                      
system.cpu.num_idle_cycles                         -0                      
system.cpu.num_busy_cycles                    1457639                      
system.cpu.not_idle_fraction                        1                      
system.cpu.idle_fraction                           -0                      
system.cpu.Branches                             87544                      
system.cpu.op_class::No_OpClass                   224      0.05%      0.05%
system.cpu.op_class::IntAlu                    237173     59.01%     59.07%
system.cpu.op_class::IntMult                      638      0.15%     59.23%
system.cpu.op_class::IntDiv                         4      0.00%     59.23%
system.cpu.op_class::FloatAdd                      11      0.00%     59.23%
system.cpu.op_class::FloatCmp                     170      0.04%     59.27%
system.cpu.op_class::FloatCvt                     128      0.03%     59.30%
system.cpu.op_class::FloatMult                      8      0.00%     59.31%
system.cpu.op_class::FloatMultAcc                  22      0.00%     59.31%
system.cpu.op_class::FloatDiv                      11      0.00%     59.31%
system.cpu.op_class::FloatMisc                    122      0.03%     59.34%
system.cpu.op_class::FloatSqrt                      5      0.00%     59.35%
system.cpu.op_class::SimdAdd                        0      0.00%     59.35%
system.cpu.op_class::SimdAddAcc                     0      0.00%     59.35%
system.cpu.op_class::SimdAlu                        0      0.00%     59.35%
system.cpu.op_class::SimdCmp                        0      0.00%     59.35%
system.cpu.op_class::SimdCvt                        0      0.00%     59.35%
system.cpu.op_class::SimdMisc                       0      0.00%     59.35%
system.cpu.op_class::SimdMult                       0      0.00%     59.35%
system.cpu.op_class::SimdMultAcc                    0      0.00%     59.35%
system.cpu.op_class::SimdShift                      0      0.00%     59.35%
system.cpu.op_class::SimdShiftAcc                   0      0.00%     59.35%
system.cpu.op_class::SimdSqrt                       0      0.00%     59.35%
system.cpu.op_class::SimdFloatAdd                   0      0.00%     59.35%
system.cpu.op_class::SimdFloatAlu                   0      0.00%     59.35%
system.cpu.op_class::SimdFloatCmp                   0      0.00%     59.35%
system.cpu.op_class::SimdFloatCvt                   0      0.00%     59.35%
system.cpu.op_class::SimdFloatDiv                   0      0.00%     59.35%
system.cpu.op_class::SimdFloatMisc                  0      0.00%     59.35%
system.cpu.op_class::SimdFloatMult                  0      0.00%     59.35%
system.cpu.op_class::SimdFloatMultAcc               0      0.00%     59.35%
system.cpu.op_class::SimdFloatSqrt                  0      0.00%     59.35%
system.cpu.op_class::MemRead                   101109     25.15%     84.50%
system.cpu.op_class::MemWrite                   61499     15.30%     99.81%
system.cpu.op_class::FloatMemRead                 571      0.14%     99.95%
system.cpu.op_class::FloatMemWrite                181      0.04%     99.99%
system.cpu.op_class::IprAccess                      0      0.00%     99.99%
system.cpu.op_class::InstPrefetch                   0      0.00%     99.99%
system.cpu.op_class::total                     401876                      
system.cpu.dcache.tags.pwrStateResidencyTicks::UNDEFINED    728819500                      
system.cpu.dcache.tags.replacements                 1                      
system.cpu.dcache.tags.tagsinuse           431.440842                      
system.cpu.dcache.tags.total_refs              162832                      
system.cpu.dcache.tags.sampled_refs               528                      
system.cpu.dcache.tags.avg_refs            308.393939                      
system.cpu.dcache.tags.warmup_cycle            196500                      
system.cpu.dcache.tags.occ_blocks::cpu.data   431.440842                      
system.cpu.dcache.tags.occ_percent::cpu.data     0.105332                      
system.cpu.dcache.tags.occ_percent::total     0.105332                      
system.cpu.dcache.tags.occ_task_id_blocks::1024          527                      
system.cpu.dcache.tags.age_task_id_blocks_1024::0           14                      
system.cpu.dcache.tags.age_task_id_blocks_1024::1           13                      
system.cpu.dcache.tags.age_task_id_blocks_1024::2          500                      
system.cpu.dcache.tags.occ_task_id_percent::1024     0.128662                      
system.cpu.dcache.tags.tag_accesses            327248                      
system.cpu.dcache.tags.data_accesses           327248                      
system.cpu.dcache.pwrStateResidencyTicks::UNDEFINED    728819500                      
system.cpu.dcache.ReadReq_hits::cpu.data        99693                      
system.cpu.dcache.ReadReq_hits::total           99693                      
system.cpu.dcache.WriteReq_hits::cpu.data        59766                      
system.cpu.dcache.WriteReq_hits::total          59766                      
system.cpu.dcache.LoadLockedReq_hits::cpu.data         1686                      
system.cpu.dcache.LoadLockedReq_hits::total         1686                      
system.cpu.dcache.StoreCondReq_hits::cpu.data         1687                      
system.cpu.dcache.StoreCondReq_hits::total         1687                      
system.cpu.dcache.demand_hits::cpu.data        159459                      
system.cpu.dcache.demand_hits::total           159459                      
system.cpu.dcache.overall_hits::cpu.data       159459                      
system.cpu.dcache.overall_hits::total          159459                      
system.cpu.dcache.ReadReq_misses::cpu.data          300                      
system.cpu.dcache.ReadReq_misses::total           300                      
system.cpu.dcache.WriteReq_misses::cpu.data          227                      
system.cpu.dcache.WriteReq_misses::total          227                      
system.cpu.dcache.LoadLockedReq_misses::cpu.data            1                      
system.cpu.dcache.LoadLockedReq_misses::total            1                      
system.cpu.dcache.demand_misses::cpu.data          527                      
system.cpu.dcache.demand_misses::total            527                      
system.cpu.dcache.overall_misses::cpu.data          527                      
system.cpu.dcache.overall_misses::total           527                      
system.cpu.dcache.ReadReq_miss_latency::cpu.data     18900000                      
system.cpu.dcache.ReadReq_miss_latency::total     18900000                      
system.cpu.dcache.WriteReq_miss_latency::cpu.data     14301000                      
system.cpu.dcache.WriteReq_miss_latency::total     14301000                      
system.cpu.dcache.LoadLockedReq_miss_latency::cpu.data        63000                      
system.cpu.dcache.LoadLockedReq_miss_latency::total        63000                      
system.cpu.dcache.demand_miss_latency::cpu.data     33201000                      
system.cpu.dcache.demand_miss_latency::total     33201000                      
system.cpu.dcache.overall_miss_latency::cpu.data     33201000                      
system.cpu.dcache.overall_miss_latency::total     33201000                      
system.cpu.dcache.ReadReq_accesses::cpu.data        99993                      
system.cpu.dcache.ReadReq_accesses::total        99993                      
system.cpu.dcache.WriteReq_accesses::cpu.data        59993                      
system.cpu.dcache.WriteReq_accesses::total        59993                      
system.cpu.dcache.LoadLockedReq_accesses::cpu.data         1687                      
system.cpu.dcache.LoadLockedReq_accesses::total         1687                      
system.cpu.dcache.StoreCondReq_accesses::cpu.data         1687                      
system.cpu.dcache.StoreCondReq_accesses::total         1687                      
system.cpu.dcache.demand_accesses::cpu.data       159986                      
system.cpu.dcache.demand_accesses::total       159986                      
system.cpu.dcache.overall_accesses::cpu.data       159986                      
system.cpu.dcache.overall_accesses::total       159986                      
system.cpu.dcache.ReadReq_miss_rate::cpu.data     0.003000                      
system.cpu.dcache.ReadReq_miss_rate::total     0.003000                      
system.cpu.dcache.WriteReq_miss_rate::cpu.data     0.003783                      
system.cpu.dcache.WriteReq_miss_rate::total     0.003783                      
system.cpu.dcache.LoadLockedReq_miss_rate::cpu.data     0.000592                      
system.cpu.dcache.LoadLockedReq_miss_rate::total     0.000592                      
system.cpu.dcache.demand_miss_rate::cpu.data     0.003294                      
system.cpu.dcache.demand_miss_rate::total     0.003294                      
system.cpu.dcache.overall_miss_rate::cpu.data     0.003294                      
system.cpu.dcache.overall_miss_rate::total     0.003294                      
system.cpu.dcache.ReadReq_avg_miss_latency::cpu.data        63000                      
system.cpu.dcache.ReadReq_avg_miss_latency::total        63000                      
system.cpu.dcache.WriteReq_avg_miss_latency::cpu.data        63000                      
system.cpu.dcache.WriteReq_avg_miss_latency::total        63000                      
system.cpu.dcache.LoadLockedReq_avg_miss_latency::cpu.data        63000                      
system.cpu.dcache.LoadLockedReq_avg_miss_latency::total        63000                      
system.cpu.dcache.demand_avg_miss_latency::cpu.data        63000                      
system.cpu.dcache.demand_avg_miss_latency::total        63000                      
system.cpu.dcache.overall_avg_miss_latency::cpu.data        63000                      
system.cpu.dcache.overall_avg_miss_latency::total        63000                      
system.cpu.dcache.blocked_cycles::no_mshrs            0                      
system.cpu.dcache.blocked_cycles::no_targets            0                      
system.cpu.dcache.blocked::no_mshrs                 0                      
system.cpu.dcache.blocked::no_targets               0                      
system.cpu.dcache.avg_blocked_cycles::no_mshrs          nan                      
system.cpu.dcache.avg_blocked_cycles::no_targets          nan                      
system.cpu.dcache.writebacks::writebacks            1                      
system.cpu.dcache.writebacks::total                 1                      
system.cpu.dcache.ReadReq_mshr_misses::cpu.data          300                      
system.cpu.dcache.ReadReq_mshr_misses::total          300                      
system.cpu.dcache.WriteReq_mshr_misses::cpu.data          227                      
system.cpu.dcache.WriteReq_mshr_misses::total          227                      
system.cpu.dcache.LoadLockedReq_mshr_misses::cpu.data            1                      
system.cpu.dcache.LoadLockedReq_mshr_misses::total            1                      
system.cpu.dcache.demand_mshr_misses::cpu.data          527                      
system.cpu.dcache.demand_mshr_misses::total          527                      
system.cpu.dcache.overall_mshr_misses::cpu.data          527                      
system.cpu.dcache.overall_mshr_misses::total          527                      
system.cpu.dcache.ReadReq_mshr_miss_latency::cpu.data     18600000                      
system.cpu.dcache.ReadReq_mshr_miss_latency::total     18600000                      
system.cpu.dcache.WriteReq_mshr_miss_latency::cpu.data     14074000                      
system.cpu.dcache.WriteReq_mshr_miss_latency::total     14074000                      
system.cpu.dcache.LoadLockedReq_mshr_miss_latency::cpu.data        62000                      
system.cpu.dcache.LoadLockedReq_mshr_miss_latency::total        62000                      
system.cpu.dcache.demand_mshr_miss_latency::cpu.data     32674000                      
system.cpu.dcache.demand_mshr_miss_latency::total     32674000                      
system.cpu.dcache.overall_mshr_miss_latency::cpu.data     32674000                      
system.cpu.dcache.overall_mshr_miss_latency::total     32674000                      
system.cpu.dcache.ReadReq_mshr_miss_rate::cpu.data     0.003000                      
system.cpu.dcache.ReadReq_mshr_miss_rate::total     0.003000                      
system.cpu.dcache.WriteReq_mshr_miss_rate::cpu.data     0.003783                      
system.cpu.dcache.WriteReq_mshr_miss_rate::total     0.003783                      
system.cpu.dcache.LoadLockedReq_mshr_miss_rate::cpu.data     0.000592                      
system.cpu.dcache.LoadLockedReq_mshr_miss_rate::total     0.000592                      
system.cpu.dcache.demand_mshr_miss_rate::cpu.data     0.003294                      
system.cpu.dcache.demand_mshr_miss_rate::total     0.003294                      
system.cpu.dcache.overall_mshr_miss_rate::cpu.data     0.003294                      
system.cpu.dcache.overall_mshr_miss_rate::total     0.003294                      
system.cpu.dcache.ReadReq_avg_mshr_miss_latency::cpu.data        62000                      
system.cpu.dcache.ReadReq_avg_mshr_miss_latency::total        62000                      
system.cpu.dcache.WriteReq_avg_mshr_miss_latency::cpu.data        62000                      
system.cpu.dcache.WriteReq_avg_mshr_miss_latency::total        62000                      
system.cpu.dcache.LoadLockedReq_avg_mshr_miss_latency::cpu.data        62000                      
system.cpu.dcache.LoadLockedReq_avg_mshr_miss_latency::total        62000                      
system.cpu.dcache.demand_avg_mshr_miss_latency::cpu.data        62000                      
system.cpu.dcache.demand_avg_mshr_miss_latency::total        62000                      
system.cpu.dcache.overall_avg_mshr_miss_latency::cpu.data        62000                      
system.cpu.dcache.overall_avg_mshr_miss_latency::total        62000                      
system.cpu.icache.tags.pwrStateResidencyTicks::UNDEFINED    728819500                      
system.cpu.icache.tags.replacements                51                      
system.cpu.icache.tags.tagsinuse           685.029891                      
system.cpu.icache.tags.total_refs              466687                      
system.cpu.icache.tags.sampled_refs              1049                      
system.cpu.icache.tags.avg_refs            444.887511                      
system.cpu.icache.tags.warmup_cycle             62500                      
system.cpu.icache.tags.occ_blocks::cpu.inst   685.029891                      
system.cpu.icache.tags.occ_percent::cpu.inst     0.334487                      
system.cpu.icache.tags.occ_percent::total     0.334487                      
system.cpu.icache.tags.occ_task_id_blocks::1024          998                      
system.cpu.icache.tags.age_task_id_blocks_1024::0           39                      
system.cpu.icache.tags.age_task_id_blocks_1024::1           57                      
system.cpu.icache.tags.age_task_id_blocks_1024::2          902                      
system.cpu.icache.tags.occ_task_id_percent::1024     0.487304                      
system.cpu.icache.tags.tag_accesses            936521                      
system.cpu.icache.tags.data_accesses           936521                      
system.cpu.icache.pwrStateResidencyTicks::UNDEFINED    728819500                      
system.cpu.icache.ReadReq_hits::cpu.inst       466687                      
system.cpu.icache.ReadReq_hits::total          466687                      
system.cpu.icache.demand_hits::cpu.inst        466687                      
system.cpu.icache.demand_hits::total           466687                      
system.cpu.icache.overall_hits::cpu.inst       466687                      
system.cpu.icache.overall_hits::total          466687                      
system.cpu.icache.ReadReq_misses::cpu.inst         1049                      
system.cpu.icache.ReadReq_misses::total          1049                      
system.cpu.icache.demand_misses::cpu.inst         1049                      
system.cpu.icache.demand_misses::total           1049                      
system.cpu.icache.overall_misses::cpu.inst         1049                      
system.cpu.icache.overall_misses::total          1049                      
system.cpu.icache.ReadReq_miss_latency::cpu.inst     66037500                      
system.cpu.icache.ReadReq_miss_latency::total     66037500                      
system.cpu.icache.demand_miss_latency::cpu.inst     66037500                      
system.cpu.icache.demand_miss_latency::total     66037500                      
system.cpu.icache.overall_miss_latency::cpu.inst     66037500                      
system.cpu.icache.overall_miss_latency::total     66037500                      
system.cpu.icache.ReadReq_accesses::cpu.inst       467736                      
system.cpu.icache.ReadReq_accesses::total       467736                      
system.cpu.icache.demand_accesses::cpu.inst       467736                      
system.cpu.icache.demand_accesses::total       467736                      
system.cpu.icache.overall_accesses::cpu.inst       467736                      
system.cpu.icache.overall_accesses::total       467736                      
system.cpu.icache.ReadReq_miss_rate::cpu.inst     0.002242                      
system.cpu.icache.ReadReq_miss_rate::total     0.002242                      
system.cpu.icache.demand_miss_rate::cpu.inst     0.002242                      
system.cpu.icache.demand_miss_rate::total     0.002242                      
system.cpu.icache.overall_miss_rate::cpu.inst     0.002242                      
system.cpu.icache.overall_miss_rate::total     0.002242                      
system.cpu.icache.ReadReq_avg_miss_latency::cpu.inst 62952.812202                      
system.cpu.icache.ReadReq_avg_miss_latency::total 62952.812202                      
system.cpu.icache.demand_avg_miss_latency::cpu.inst 62952.812202                      
system.cpu.icache.demand_avg_miss_latency::total 62952.812202                      
system.cpu.icache.overall_avg_miss_latency::cpu.inst 62952.812202                      
system.cpu.icache.overall_avg_miss_latency::total 62952.812202                      
system.cpu.icache.blocked_cycles::no_mshrs            0                      
system.cpu.icache.blocked_cycles::no_targets            0                      
system.cpu.icache.blocked::no_mshrs                 0                      
system.cpu.icache.blocked::no_targets               0                      
system.cpu.icache.avg_blocked_cycles::no_mshrs          nan                      
system.cpu.icache.avg_blocked_cycles::no_targets          nan                      
system.cpu.icache.writebacks::writebacks           51                      
system.cpu.icache.writebacks::total                51                      
system.cpu.icache.ReadReq_mshr_misses::cpu.inst         1049                      
system.cpu.icache.ReadReq_mshr_misses::total         1049                      
system.cpu.icache.demand_mshr_misses::cpu.inst         1049                      
system.cpu.icache.demand_mshr_misses::total         1049                      
system.cpu.icache.overall_mshr_misses::cpu.inst         1049                      
system.cpu.icache.overall_mshr_misses::total         1049                      
system.cpu.icache.ReadReq_mshr_miss_latency::cpu.inst     64988500                      
system.cpu.icache.ReadReq_mshr_miss_latency::total     64988500                      
system.cpu.icache.demand_mshr_miss_latency::cpu.inst     64988500                      
system.cpu.icache.demand_mshr_miss_latency::total     64988500                      
system.cpu.icache.overall_mshr_miss_latency::cpu.inst     64988500                      
system.cpu.icache.overall_mshr_miss_latency::total     64988500                      
system.cpu.icache.ReadReq_mshr_miss_rate::cpu.inst     0.002242                      
system.cpu.icache.ReadReq_mshr_miss_rate::total     0.002242                      
system.cpu.icache.demand_mshr_miss_rate::cpu.inst     0.002242                      
system.cpu.icache.demand_mshr_miss_rate::total     0.002242                      
system.cpu.icache.overall_mshr_miss_rate::cpu.inst     0.002242                      
system.cpu.icache.overall_mshr_miss_rate::total     0.002242                      
system.cpu.icache.ReadReq_avg_mshr_miss_latency::cpu.inst 61952.812202                      
system.cpu.icache.ReadReq_avg_mshr_miss_latency::total 61952.812202                      
system.cpu.icache.demand_avg_mshr_miss_latency::cpu.inst 61952.812202                      
system.cpu.icache.demand_avg_mshr_miss_latency::total 61952.812202                      
system.cpu.icache.overall_avg_mshr_miss_latency::cpu.inst 61952.812202                      
system.cpu.icache.overall_avg_mshr_miss_latency::total 61952.812202                      
system.cpu.l2cache.tags.pwrStateResidencyTicks::UNDEFINED    728819500                      
system.cpu.l2cache.tags.replacements                0                      
system.cpu.l2cache.tags.tagsinuse         1141.942717                      
system.cpu.l2cache.tags.total_refs                 53                      
system.cpu.l2cache.tags.sampled_refs             1576                      
system.cpu.l2cache.tags.avg_refs             0.033629                      
system.cpu.l2cache.tags.warmup_cycle            52000                      
system.cpu.l2cache.tags.occ_blocks::cpu.inst   710.147276                      
system.cpu.l2cache.tags.occ_blocks::cpu.data   431.795440                      
system.cpu.l2cache.tags.occ_percent::cpu.inst     0.021671                      
system.cpu.l2cache.tags.occ_percent::cpu.data     0.013177                      
system.cpu.l2cache.tags.occ_percent::total     0.034849                      
system.cpu.l2cache.tags.occ_task_id_blocks::1024         1576                      
system.cpu.l2cache.tags.age_task_id_blocks_1024::0           53                      
system.cpu.l2cache.tags.age_task_id_blocks_1024::1           70                      
system.cpu.l2cache.tags.age_task_id_blocks_1024::2         1453                      
system.cpu.l2cache.tags.occ_task_id_percent::1024     0.048095                      
system.cpu.l2cache.tags.tag_accesses            14608                      
system.cpu.l2cache.tags.data_accesses           14608                      
system.cpu.l2cache.pwrStateResidencyTicks::UNDEFINED    728819500                      
system.cpu.l2cache.WritebackDirty_hits::writebacks            1                      
system.cpu.l2cache.WritebackDirty_hits::total            1                      
system.cpu.l2cache.WritebackClean_hits::writebacks           51                      
system.cpu.l2cache.WritebackClean_hits::total           51                      
system.cpu.l2cache.ReadCleanReq_hits::cpu.inst            1                      
system.cpu.l2cache.ReadCleanReq_hits::total            1                      
system.cpu.l2cache.demand_hits::cpu.inst            1                      
system.cpu.l2cache.demand_hits::total               1                      
system.cpu.l2cache.overall_hits::cpu.inst            1                      
system.cpu.l2cache.overall_hits::total              1                      
system.cpu.l2cache.ReadExReq_misses::cpu.data          227                      
system.cpu.l2cache.ReadExReq_misses::total          227                      
system.cpu.l2cache.ReadCleanReq_misses::cpu.inst         1048                      
system.cpu.l2cache.ReadCleanReq_misses::total         1048                      
system.cpu.l2cache.ReadSharedReq_misses::cpu.data          301                      
system.cpu.l2cache.ReadSharedReq_misses::total          301                      
system.cpu.l2cache.demand_misses::cpu.inst         1048                      
system.cpu.l2cache.demand_misses::cpu.data          528                      
system.cpu.l2cache.demand_misses::total          1576                      
system.cpu.l2cache.overall_misses::cpu.inst         1048                      
system.cpu.l2cache.overall_misses::cpu.data          528                      
system.cpu.l2cache.overall_misses::total         1576                      
system.cpu.l2cache.ReadExReq_miss_latency::cpu.data     13733500                      
system.cpu.l2cache.ReadExReq_miss_latency::total     13733500                      
system.cpu.l2cache.ReadCleanReq_miss_latency::cpu.inst     63404500                      
system.cpu.l2cache.ReadCleanReq_miss_latency::total     63404500                      
system.cpu.l2cache.ReadSharedReq_miss_latency::cpu.data     18210500                      
system.cpu.l2cache.ReadSharedReq_miss_latency::total     18210500                      
system.cpu.l2cache.demand_miss_latency::cpu.inst     63404500                      
system.cpu.l2cache.demand_miss_latency::cpu.data     31944000                      
system.cpu.l2cache.demand_miss_latency::total     95348500                      
system.cpu.l2cache.overall_miss_latency::cpu.inst     63404500                      
system.cpu.l2cache.overall_miss_latency::cpu.data     31944000                      
system.cpu.l2cache.overall_miss_latency::total     95348500                      
system.cpu.l2cache.WritebackDirty_accesses::writebacks            1                      
system.cpu.l2cache.WritebackDirty_accesses::total            1                      
system.cpu.l2cache.WritebackClean_accesses::writebacks           51                      
system.cpu.l2cache.WritebackClean_accesses::total           51                      
system.cpu.l2cache.ReadExReq_accesses::cpu.data          227                      
system.cpu.l2cache.ReadExReq_accesses::total          227                      
system.cpu.l2cache.ReadCleanReq_accesses::cpu.inst         1049                      
system.cpu.l2cache.ReadCleanReq_accesses::total         1049                      
system.cpu.l2cache.ReadSharedReq_accesses::cpu.data          301                      
system.cpu.l2cache.ReadSharedReq_accesses::total          301                      
system.cpu.l2cache.demand_accesses::cpu.inst         1049                      
system.cpu.l2cache.demand_accesses::cpu.data          528                      
system.cpu.l2cache.demand_accesses::total         1577                      
system.cpu.l2cache.overall_accesses::cpu.inst         1049                      
system.cpu.l2cache.overall_accesses::cpu.data          528                      
system.cpu.l2cache.overall_accesses::total         1577                      
system.cpu.l2cache.ReadExReq_miss_rate::cpu.data            1                      
system.cpu.l2cache.ReadExReq_miss_rate::total            1                      
system.cpu.l2cache.ReadCleanReq_miss_rate::cpu.inst     0.999046                      
system.cpu.l2cache.ReadCleanReq_miss_rate::total     0.999046                      
system.cpu.l2cache.ReadSharedReq_miss_rate::cpu.data            1                      
system.cpu.l2cache.ReadSharedReq_miss_rate::total            1                      
system.cpu.l2cache.demand_miss_rate::cpu.inst     0.999046                      
system.cpu.l2cache.demand_miss_rate::cpu.data            1                      
system.cpu.l2cache.demand_miss_rate::total     0.999365                      
system.cpu.l2cache.overall_miss_rate::cpu.inst     0.999046                      
system.cpu.l2cache.overall_miss_rate::cpu.data            1                      
system.cpu.l2cache.overall_miss_rate::total     0.999365                      
system.cpu.l2cache.ReadExReq_avg_miss_latency::cpu.data        60500                      
system.cpu.l2cache.ReadExReq_avg_miss_latency::total        60500                      
system.cpu.l2cache.ReadCleanReq_avg_miss_latency::cpu.inst 60500.477099                      
system.cpu.l2cache.ReadCleanReq_avg_miss_latency::total 60500.477099                      
system.cpu.l2cache.ReadSharedReq_avg_miss_latency::cpu.data        60500                      
system.cpu.l2cache.ReadSharedReq_avg_miss_latency::total        60500                      
system.cpu.l2cache.demand_avg_miss_latency::cpu.inst 60500.477099                      
system.cpu.l2cache.demand_avg_miss_latency::cpu.data        60500                      
system.cpu.l2cache.demand_avg_miss_latency::total 60500.317258                      
system.cpu.l2cache.overall_avg_miss_latency::cpu.inst 60500.477099                      
system.cpu.l2cache.overall_avg_miss_latency::cpu.data        60500                      
system.cpu.l2cache.overall_avg_miss_latency::total 60500.317258                      
system.cpu.l2cache.blocked_cycles::no_mshrs            0                      
system.cpu.l2cache.blocked_cycles::no_targets            0                      
system.cpu.l2cache.blocked::no_mshrs                0                      
system.cpu.l2cache.blocked::no_targets              0                      
system.cpu.l2cache.avg_blocked_cycles::no_mshrs          nan                      
system.cpu.l2cache.avg_blocked_cycles::no_targets          nan                      
system.cpu.l2cache.ReadExReq_mshr_misses::cpu.data          227                      
system.cpu.l2cache.ReadExReq_mshr_misses::total          227                      
system.cpu.l2cache.ReadCleanReq_mshr_misses::cpu.inst         1048                      
system.cpu.l2cache.ReadCleanReq_mshr_misses::total         1048                      
system.cpu.l2cache.ReadSharedReq_mshr_misses::cpu.data          301                      
system.cpu.l2cache.ReadSharedReq_mshr_misses::total          301                      
system.cpu.l2cache.demand_mshr_misses::cpu.inst         1048                      
system.cpu.l2cache.demand_mshr_misses::cpu.data          528                      
system.cpu.l2cache.demand_mshr_misses::total         1576                      
system.cpu.l2cache.overall_mshr_misses::cpu.inst         1048                      
system.cpu.l2cache.overall_mshr_misses::cpu.data          528                      
system.cpu.l2cache.overall_mshr_misses::total         1576                      
system.cpu.l2cache.ReadExReq_mshr_miss_latency::cpu.data     11463500                      
system.cpu.l2cache.ReadExReq_mshr_miss_latency::total     11463500                      
system.cpu.l2cache.ReadCleanReq_mshr_miss_latency::cpu.inst     52924500                      
system.cpu.l2cache.ReadCleanReq_mshr_miss_latency::total     52924500                      
system.cpu.l2cache.ReadSharedReq_mshr_miss_latency::cpu.data     15200500                      
system.cpu.l2cache.ReadSharedReq_mshr_miss_latency::total     15200500                      
system.cpu.l2cache.demand_mshr_miss_latency::cpu.inst     52924500                      
system.cpu.l2cache.demand_mshr_miss_latency::cpu.data     26664000                      
system.cpu.l2cache.demand_mshr_miss_latency::total     79588500                      
system.cpu.l2cache.overall_mshr_miss_latency::cpu.inst     52924500                      
system.cpu.l2cache.overall_mshr_miss_latency::cpu.data     26664000                      
system.cpu.l2cache.overall_mshr_miss_latency::total     79588500                      
system.cpu.l2cache.ReadExReq_mshr_miss_rate::cpu.data            1                      
system.cpu.l2cache.ReadExReq_mshr_miss_rate::total            1                      
system.cpu.l2cache.ReadCleanReq_mshr_miss_rate::cpu.inst     0.999046                      
system.cpu.l2cache.ReadCleanReq_mshr_miss_rate::total     0.999046                      
system.cpu.l2cache.ReadSharedReq_mshr_miss_rate::cpu.data            1                      
system.cpu.l2cache.ReadSharedReq_mshr_miss_rate::total            1                      
system.cpu.l2cache.demand_mshr_miss_rate::cpu.inst     0.999046                      
system.cpu.l2cache.demand_mshr_miss_rate::cpu.data            1                      
system.cpu.l2cache.demand_mshr_miss_rate::total     0.999365                      
system.cpu.l2cache.overall_mshr_miss_rate::cpu.inst     0.999046                      
system.cpu.l2cache.overall_mshr_miss_rate::cpu.data            1                      
system.cpu.l2cache.overall_mshr_miss_rate::total     0.999365                      
system.cpu.l2cache.ReadExReq_avg_mshr_miss_latency::cpu.data        50500                      
system.cpu.l2cache.ReadExReq_avg_mshr_miss_latency::total        50500                      
system.cpu.l2cache.ReadCleanReq_avg_mshr_miss_latency::cpu.inst 50500.477099                      
system.cpu.l2cache.ReadCleanReq_avg_mshr_miss_latency::total 50500.477099                      
system.cpu.l2cache.ReadSharedReq_avg_mshr_miss_latency::cpu.data        50500                      
system.cpu.l2cache.ReadSharedReq_avg_mshr_miss_latency::total        50500                      
system.cpu.l2cache.demand_avg_mshr_miss_latency::cpu.inst 50500.477099                      
system.cpu.l2cache.demand_avg_mshr_miss_latency::cpu.data        50500                      
system.cpu.l2cache.demand_avg_mshr_miss_latency::total 50500.317258                      
system.cpu.l2cache.overall_avg_mshr_miss_latency::cpu.inst 50500.477099                      
system.cpu.l2cache.overall_avg_mshr_miss_latency::cpu.data        50500                      
system.cpu.l2cache.overall_avg_mshr_miss_latency::total 50500.317258                      
system.cpu.toL2Bus.snoop_filter.tot_requests         1629                      
system.cpu.toL2Bus.snoop_filter.hit_single_requests           52                      
system.cpu.toL2Bus.snoop_filter.hit_multi_requests            0                      
system.cpu.toL2Bus.snoop_filter.tot_snoops            0                      
system.cpu.toL2Bus.snoop_filter.hit_single_snoops            0                      
system.cpu.toL2Bus.snoop_filter.hit_multi_snoops            0                      
system.cpu.toL2Bus.pwrStateResidencyTicks::UNDEFINED    728819500                      
system.cpu.toL2Bus.trans_dist::ReadResp          1350                      
system.cpu.toL2Bus.trans_dist::WritebackDirty            1                      
system.cpu.toL2Bus.trans_dist::WritebackClean           51                      
system.cpu.toL2Bus.trans_dist::ReadExReq          227                      
system.cpu.toL2Bus.trans_dist::ReadExResp          227                      
system.cpu.toL2Bus.trans_dist::ReadCleanReq         1049                      
system.cpu.toL2Bus.trans_dist::ReadSharedReq          301                      
system.cpu.toL2Bus.pkt_count_system.cpu.icache.mem_side::system.cpu.l2cache.cpu_side         2149                      
system.cpu.toL2Bus.pkt_count_system.cpu.dcache.mem_side::system.cpu.l2cache.cpu_side         1057                      
system.cpu.toL2Bus.pkt_count::total              3206                      
system.cpu.toL2Bus.pkt_size_system.cpu.icache.mem_side::system.cpu.l2cache.cpu_side        70400                      
system.cpu.toL2Bus.pkt_size_system.cpu.dcache.mem_side::system.cpu.l2cache.cpu_side        33856                      
system.cpu.toL2Bus.pkt_size::total             104256                      
system.cpu.toL2Bus.snoops                           0                      
system.cpu.toL2Bus.snoopTraffic                     0                      
system.cpu.toL2Bus.snoop_fanout::samples         1577                      
system.cpu.toL2Bus.snoop_fanout::mean               0                      
system.cpu.toL2Bus.snoop_fanout::stdev             -0                      
system.cpu.toL2Bus.snoop_fanout::underflows            0      0.00%      0.00%
system.cpu.toL2Bus.snoop_fanout::0               1577    100.00%    100.00%
system.cpu.toL2Bus.snoop_fanout::1                  0      0.00%    100.00%
system.cpu.toL2Bus.snoop_fanout::2                  0      0.00%    100.00%
system.cpu.toL2Bus.snoop_fanout::overflows            0      0.00%    100.00%
system.cpu.toL2Bus.snoop_fanout::min_value            0                      
system.cpu.toL2Bus.snoop_fanout::max_value            0                      
system.cpu.toL2Bus.snoop_fanout::total           1577                      
system.cpu.toL2Bus.reqLayer0.occupancy         866500                      
system.cpu.toL2Bus.reqLayer0.utilization          0.1                      
system.cpu.toL2Bus.respLayer0.occupancy       1573500                      
system.cpu.toL2Bus.respLayer0.utilization          0.2                      
system.cpu.toL2Bus.respLayer1.occupancy        792000                      
system.cpu.toL2Bus.respLayer1.utilization          0.1                      
system.membus.snoop_filter.tot_requests          1576                      
system.membus.snoop_filter.hit_single_requests            0                      
system.membus.snoop_filter.hit_multi_requests            0                      
system.membus.snoop_filter.tot_snoops               0                      
system.membus.snoop_filter.hit_single_snoops            0                      
system.membus.snoop_filter.hit_multi_snoops            0                      
system.membus.pwrStateResidencyTicks::UNDEFINED    728819500                      
system.membus.trans_dist::ReadResp               1349                      
system.membus.trans_dist::ReadExReq               227                      
system.membus.trans_dist::ReadExResp              227                      
system.membus.trans_dist::ReadSharedReq          1349                      
system.membus.pkt_count_system.cpu.l2cache.mem_side::system.physmem.port         3152                      
system.membus.pkt_count::total                   3152                      
system.membus.pkt_size_system.cpu.l2cache.mem_side::system.physmem.port       100864                      
system.membus.pkt_size::total                  100864                      
system.membus.snoops                                0                      
system.membus.snoopTraffic                          0                      
system.membus.snoop_fanout::samples              1576                      
system.membus.snoop_fanout::mean                    0                      
system.membus.snoop_fanout::stdev                  -0                      
system.membus.snoop_fanout::underflows              0      0.00%      0.00%
system.membus.snoop_fanout::0                    1576    100.00%    100.00%
system.membus.snoop_fanout::1                       0      0.00%    100.00%
system.membus.snoop_fanout::overflows               0      0.00%    100.00%
system.membus.snoop_fanout::min_value               0                      
system.membus.snoop_fanout::max_value               0                      
system.membus.snoop_fanout::total                1576                      
system.membus.reqLayer0.occupancy             1576500                      
system.membus.reqLayer0.utilization               0.2                      
system.membus.respLayer1.occupancy            7880000                      
system.membus.respLayer1.utilization              1.0                      

---------- End Simulation Statistics   ----------
