
---------- Begin Simulation Statistics ----------
sim_seconds                                  0.007686                      
sim_ticks                                     7686702                      
final_tick                                    7686702                      
sim_freq                                   1000000000                      
host_inst_rate                                  42555                      
host_op_rate                                    42686                      
host_tick_rate                                 816911                      
host_mem_usage                                 570268                      
host_seconds                                     9.40                      
sim_insts                                      400425                      
sim_ops                                        401656                      
system.voltage_domain.voltage                       1                      
system.clk_domain.clock                             1                      
system.mem_ctrls.pwrStateResidencyTicks::UNDEFINED      7686702                      
system.mem_ctrls.bytes_read::ruby.dir_cntrl0      7061440                      
system.mem_ctrls.bytes_read::total            7061440                      
system.mem_ctrls.bytes_written::ruby.dir_cntrl0      7061184                      
system.mem_ctrls.bytes_written::total         7061184                      
system.mem_ctrls.num_reads::ruby.dir_cntrl0       110335                      
system.mem_ctrls.num_reads::total              110335                      
system.mem_ctrls.num_writes::ruby.dir_cntrl0       110331                      
system.mem_ctrls.num_writes::total             110331                      
system.mem_ctrls.bw_read::ruby.dir_cntrl0    918656661                      
system.mem_ctrls.bw_read::total             918656661                      
system.mem_ctrls.bw_write::ruby.dir_cntrl0    918623357                      
system.mem_ctrls.bw_write::total            918623357                      
system.mem_ctrls.bw_total::ruby.dir_cntrl0   1837280019                      
system.mem_ctrls.bw_total::total           1837280019                      
system.mem_ctrls.readReqs                      110335                      
system.mem_ctrls.writeReqs                     110331                      
system.mem_ctrls.readBursts                    110335                      
system.mem_ctrls.writeBursts                   110331                      
system.mem_ctrls.bytesReadDRAM                3850944                      
system.mem_ctrls.bytesReadWrQ                 3210496                      
system.mem_ctrls.bytesWritten                 4086912                      
system.mem_ctrls.bytesReadSys                 7061440                      
system.mem_ctrls.bytesWrittenSys              7061184                      
system.mem_ctrls.servicedByWrQ                  50164                      
system.mem_ctrls.mergedWrBursts                 46451                      
system.mem_ctrls.neitherReadNorWriteReqs            0                      
system.mem_ctrls.perBankRdBursts::0              9062                      
system.mem_ctrls.perBankRdBursts::1              7842                      
system.mem_ctrls.perBankRdBursts::2              6667                      
system.mem_ctrls.perBankRdBursts::3              9545                      
system.mem_ctrls.perBankRdBursts::4              4581                      
system.mem_ctrls.perBankRdBursts::5              1812                      
system.mem_ctrls.perBankRdBursts::6              2969                      
system.mem_ctrls.perBankRdBursts::7              8181                      
system.mem_ctrls.perBankRdBursts::8                52                      
system.mem_ctrls.perBankRdBursts::9               166                      
system.mem_ctrls.perBankRdBursts::10               13                      
system.mem_ctrls.perBankRdBursts::11              251                      
system.mem_ctrls.perBankRdBursts::12             1674                      
system.mem_ctrls.perBankRdBursts::13              833                      
system.mem_ctrls.perBankRdBursts::14             2125                      
system.mem_ctrls.perBankRdBursts::15             4398                      
system.mem_ctrls.perBankWrBursts::0              9352                      
system.mem_ctrls.perBankWrBursts::1              8255                      
system.mem_ctrls.perBankWrBursts::2              6837                      
system.mem_ctrls.perBankWrBursts::3             11280                      
system.mem_ctrls.perBankWrBursts::4              4712                      
system.mem_ctrls.perBankWrBursts::5              1838                      
system.mem_ctrls.perBankWrBursts::6              3005                      
system.mem_ctrls.perBankWrBursts::7              8644                      
system.mem_ctrls.perBankWrBursts::8                55                      
system.mem_ctrls.perBankWrBursts::9               174                      
system.mem_ctrls.perBankWrBursts::10               13                      
system.mem_ctrls.perBankWrBursts::11              254                      
system.mem_ctrls.perBankWrBursts::12             1716                      
system.mem_ctrls.perBankWrBursts::13              836                      
system.mem_ctrls.perBankWrBursts::14             2257                      
system.mem_ctrls.perBankWrBursts::15             4630                      
system.mem_ctrls.numRdRetry                         0                      
system.mem_ctrls.numWrRetry                         0                      
system.mem_ctrls.totGap                       7686616                      
system.mem_ctrls.readPktSize::0                     0                      
system.mem_ctrls.readPktSize::1                     0                      
system.mem_ctrls.readPktSize::2                     0                      
system.mem_ctrls.readPktSize::3                     0                      
system.mem_ctrls.readPktSize::4                     0                      
system.mem_ctrls.readPktSize::5                     0                      
system.mem_ctrls.readPktSize::6                110335                      
system.mem_ctrls.writePktSize::0                    0                      
system.mem_ctrls.writePktSize::1                    0                      
system.mem_ctrls.writePktSize::2                    0                      
system.mem_ctrls.writePktSize::3                    0                      
system.mem_ctrls.writePktSize::4                    0                      
system.mem_ctrls.writePktSize::5                    0                      
system.mem_ctrls.writePktSize::6               110331                      
system.mem_ctrls.rdQLenPdf::0                   60171                      
system.mem_ctrls.rdQLenPdf::1                       0                      
system.mem_ctrls.rdQLenPdf::2                       0                      
system.mem_ctrls.rdQLenPdf::3                       0                      
system.mem_ctrls.rdQLenPdf::4                       0                      
system.mem_ctrls.rdQLenPdf::5                       0                      
system.mem_ctrls.rdQLenPdf::6                       0                      
system.mem_ctrls.rdQLenPdf::7                       0                      
system.mem_ctrls.rdQLenPdf::8                       0                      
system.mem_ctrls.rdQLenPdf::9                       0                      
system.mem_ctrls.rdQLenPdf::10                      0                      
system.mem_ctrls.rdQLenPdf::11                      0                      
system.mem_ctrls.rdQLenPdf::12                      0                      
system.mem_ctrls.rdQLenPdf::13                      0                      
system.mem_ctrls.rdQLenPdf::14                      0                      
system.mem_ctrls.rdQLenPdf::15                      0                      
system.mem_ctrls.rdQLenPdf::16                      0                      
system.mem_ctrls.rdQLenPdf::17                      0                      
system.mem_ctrls.rdQLenPdf::18                      0                      
system.mem_ctrls.rdQLenPdf::19                      0                      
system.mem_ctrls.rdQLenPdf::20                      0                      
system.mem_ctrls.rdQLenPdf::21                      0                      
system.mem_ctrls.rdQLenPdf::22                      0                      
system.mem_ctrls.rdQLenPdf::23                      0                      
system.mem_ctrls.rdQLenPdf::24                      0                      
system.mem_ctrls.rdQLenPdf::25                      0                      
system.mem_ctrls.rdQLenPdf::26                      0                      
system.mem_ctrls.rdQLenPdf::27                      0                      
system.mem_ctrls.rdQLenPdf::28                      0                      
system.mem_ctrls.rdQLenPdf::29                      0                      
system.mem_ctrls.rdQLenPdf::30                      0                      
system.mem_ctrls.rdQLenPdf::31                      0                      
system.mem_ctrls.wrQLenPdf::0                       1                      
system.mem_ctrls.wrQLenPdf::1                       1                      
system.mem_ctrls.wrQLenPdf::2                       1                      
system.mem_ctrls.wrQLenPdf::3                       1                      
system.mem_ctrls.wrQLenPdf::4                       1                      
system.mem_ctrls.wrQLenPdf::5                       1                      
system.mem_ctrls.wrQLenPdf::6                       1                      
system.mem_ctrls.wrQLenPdf::7                       1                      
system.mem_ctrls.wrQLenPdf::8                       1                      
system.mem_ctrls.wrQLenPdf::9                       1                      
system.mem_ctrls.wrQLenPdf::10                      1                      
system.mem_ctrls.wrQLenPdf::11                      1                      
system.mem_ctrls.wrQLenPdf::12                      1                      
system.mem_ctrls.wrQLenPdf::13                      1                      
system.mem_ctrls.wrQLenPdf::14                      1                      
system.mem_ctrls.wrQLenPdf::15                    556                      
system.mem_ctrls.wrQLenPdf::16                    688                      
system.mem_ctrls.wrQLenPdf::17                   3456                      
system.mem_ctrls.wrQLenPdf::18                   3939                      
system.mem_ctrls.wrQLenPdf::19                   3982                      
system.mem_ctrls.wrQLenPdf::20                   4125                      
system.mem_ctrls.wrQLenPdf::21                   4152                      
system.mem_ctrls.wrQLenPdf::22                   4031                      
system.mem_ctrls.wrQLenPdf::23                   3900                      
system.mem_ctrls.wrQLenPdf::24                   3893                      
system.mem_ctrls.wrQLenPdf::25                   3894                      
system.mem_ctrls.wrQLenPdf::26                   3896                      
system.mem_ctrls.wrQLenPdf::27                   3894                      
system.mem_ctrls.wrQLenPdf::28                   3893                      
system.mem_ctrls.wrQLenPdf::29                   3891                      
system.mem_ctrls.wrQLenPdf::30                   3892                      
system.mem_ctrls.wrQLenPdf::31                   3891                      
system.mem_ctrls.wrQLenPdf::32                   3891                      
system.mem_ctrls.wrQLenPdf::33                      1                      
system.mem_ctrls.wrQLenPdf::34                      0                      
system.mem_ctrls.wrQLenPdf::35                      0                      
system.mem_ctrls.wrQLenPdf::36                      0                      
system.mem_ctrls.wrQLenPdf::37                      0                      
system.mem_ctrls.wrQLenPdf::38                      0                      
system.mem_ctrls.wrQLenPdf::39                      0                      
system.mem_ctrls.wrQLenPdf::40                      0                      
system.mem_ctrls.wrQLenPdf::41                      0                      
system.mem_ctrls.wrQLenPdf::42                      0                      
system.mem_ctrls.wrQLenPdf::43                      0                      
system.mem_ctrls.wrQLenPdf::44                      0                      
system.mem_ctrls.wrQLenPdf::45                      0                      
system.mem_ctrls.wrQLenPdf::46                      0                      
system.mem_ctrls.wrQLenPdf::47                      0                      
system.mem_ctrls.wrQLenPdf::48                      0                      
system.mem_ctrls.wrQLenPdf::49                      0                      
system.mem_ctrls.wrQLenPdf::50                      0                      
system.mem_ctrls.wrQLenPdf::51                      0                      
system.mem_ctrls.wrQLenPdf::52                      0                      
system.mem_ctrls.wrQLenPdf::53                      0                      
system.mem_ctrls.wrQLenPdf::54                      0                      
system.mem_ctrls.wrQLenPdf::55                      0                      
system.mem_ctrls.wrQLenPdf::56                      0                      
system.mem_ctrls.wrQLenPdf::57                      0                      
system.mem_ctrls.wrQLenPdf::58                      0                      
system.mem_ctrls.wrQLenPdf::59                      0                      
system.mem_ctrls.wrQLenPdf::60                      0                      
system.mem_ctrls.wrQLenPdf::61                      0                      
system.mem_ctrls.wrQLenPdf::62                      0                      
system.mem_ctrls.wrQLenPdf::63                      0                      
system.mem_ctrls.bytesPerActivate::samples        28642                      
system.mem_ctrls.bytesPerActivate::mean    277.075623                      
system.mem_ctrls.bytesPerActivate::gmean   189.045823                      
system.mem_ctrls.bytesPerActivate::stdev   256.593698                      
system.mem_ctrls.bytesPerActivate::0-127         7922     27.65%     27.65%
system.mem_ctrls.bytesPerActivate::128-255         8446     29.48%     57.14%
system.mem_ctrls.bytesPerActivate::256-383         4518     15.77%     72.92%
system.mem_ctrls.bytesPerActivate::384-511         2809      9.80%     82.72%
system.mem_ctrls.bytesPerActivate::512-639         1712      5.97%     88.70%
system.mem_ctrls.bytesPerActivate::640-767          857      2.99%     91.69%
system.mem_ctrls.bytesPerActivate::768-895          639      2.23%     93.92%
system.mem_ctrls.bytesPerActivate::896-1023          405      1.41%     95.34%
system.mem_ctrls.bytesPerActivate::1024-1151         1334      4.65%     99.99%
system.mem_ctrls.bytesPerActivate::total        28642                      
system.mem_ctrls.rdPerTurnAround::samples         3891                      
system.mem_ctrls.rdPerTurnAround::mean      15.462863                      
system.mem_ctrls.rdPerTurnAround::gmean     15.397754                      
system.mem_ctrls.rdPerTurnAround::stdev      1.436342                      
system.mem_ctrls.rdPerTurnAround::12-13           283      7.27%      7.27%
system.mem_ctrls.rdPerTurnAround::14-15          1778     45.69%     52.96%
system.mem_ctrls.rdPerTurnAround::16-17          1518     39.01%     91.98%
system.mem_ctrls.rdPerTurnAround::18-19           295      7.58%     99.56%
system.mem_ctrls.rdPerTurnAround::20-21            16      0.41%     99.97%
system.mem_ctrls.rdPerTurnAround::32-33             1      0.02%     99.99%
system.mem_ctrls.rdPerTurnAround::total          3891                      
system.mem_ctrls.wrPerTurnAround::samples         3891                      
system.mem_ctrls.wrPerTurnAround::mean      16.411719                      
system.mem_ctrls.wrPerTurnAround::gmean     16.386387                      
system.mem_ctrls.wrPerTurnAround::stdev      0.945891                      
system.mem_ctrls.wrPerTurnAround::16             3225     82.88%     82.88%
system.mem_ctrls.wrPerTurnAround::17               60      1.54%     84.42%
system.mem_ctrls.wrPerTurnAround::18              279      7.17%     91.59%
system.mem_ctrls.wrPerTurnAround::19              324      8.32%     99.92%
system.mem_ctrls.wrPerTurnAround::20                3      0.07%     99.99%
system.mem_ctrls.wrPerTurnAround::total          3891                      
system.mem_ctrls.totQLat                      1259184                      
system.mem_ctrls.totMemAccLat                 2402433                      
system.mem_ctrls.totBusLat                     300855                      
system.mem_ctrls.avgQLat                        20.92                      
system.mem_ctrls.avgBusLat                       5.00                      
system.mem_ctrls.avgMemAccLat                   39.92                      
system.mem_ctrls.avgRdBW                       500.98                      
system.mem_ctrls.avgWrBW                       531.68                      
system.mem_ctrls.avgRdBWSys                    918.65                      
system.mem_ctrls.avgWrBWSys                    918.62                      
system.mem_ctrls.peakBW                      12800.00                      
system.mem_ctrls.busUtil                         8.06                      
system.mem_ctrls.busUtilRead                     3.91                      
system.mem_ctrls.busUtilWrite                    4.15                      
system.mem_ctrls.avgRdQLen                       0.99                      
system.mem_ctrls.avgWrQLen                      25.98                      
system.mem_ctrls.readRowHits                    38453                      
system.mem_ctrls.writeRowHits                   56927                      
system.mem_ctrls.readRowHitRate                 63.90                      
system.mem_ctrls.writeRowHitRate                89.11                      
system.mem_ctrls.avgGap                         34.83                      
system.mem_ctrls.pageHitRate                    76.88                      
system.mem_ctrls_0.actEnergy                160821360                      
system.mem_ctrls_0.preEnergy                 87025008                      
system.mem_ctrls_0.readEnergy               578728416                      
system.mem_ctrls_0.writeEnergy              450364896                      
system.mem_ctrls_0.refreshEnergy            607264320                      
system.mem_ctrls_0.actBackEnergy           1098516768                      
system.mem_ctrls_0.preBackEnergy             13298688                      
system.mem_ctrls_0.actPowerDownEnergy      2341109016                      
system.mem_ctrls_0.prePowerDownEnergy        33398016                      
system.mem_ctrls_0.selfRefreshEnergy          7502640                      
system.mem_ctrls_0.totalEnergy             5378029128                      
system.mem_ctrls_0.averagePower            699.653652                      
system.mem_ctrls_0.totalIdleTime              5242833                      
system.mem_ctrls_0.memoryStateTime::IDLE         5313                      
system.mem_ctrls_0.memoryStateTime::REF        256904                      
system.mem_ctrls_0.memoryStateTime::SREF        22057                      
system.mem_ctrls_0.memoryStateTime::PRE_PDN        86974                      
system.mem_ctrls_0.memoryStateTime::ACT       2181443                      
system.mem_ctrls_0.memoryStateTime::ACT_PDN      5134011                      
system.mem_ctrls_1.actEnergy                 43732500                      
system.mem_ctrls_1.preEnergy                 23647680                      
system.mem_ctrls_1.readEnergy               108665088                      
system.mem_ctrls_1.writeEnergy               82977120                      
system.mem_ctrls_1.refreshEnergy            604191120                      
system.mem_ctrls_1.actBackEnergy            836632776                      
system.mem_ctrls_1.preBackEnergy             16414848                      
system.mem_ctrls_1.actPowerDownEnergy      2256233736                      
system.mem_ctrls_1.prePowerDownEnergy       289655040                      
system.mem_ctrls_1.selfRefreshEnergy         31764960                      
system.mem_ctrls_1.totalEnergy             4293914868                      
system.mem_ctrls_1.averagePower            558.616018                      
system.mem_ctrls_1.totalIdleTime              5809197                      
system.mem_ctrls_1.memoryStateTime::IDLE        14370                      
system.mem_ctrls_1.memoryStateTime::REF        255646                      
system.mem_ctrls_1.memoryStateTime::SREF       107043                      
system.mem_ctrls_1.memoryStateTime::PRE_PDN       754310                      
system.mem_ctrls_1.memoryStateTime::ACT       1607452                      
system.mem_ctrls_1.memoryStateTime::ACT_PDN      4947881                      
system.pwrStateResidencyTicks::UNDEFINED      7686702                      
system.cpu.clk_domain.clock                         1                      
system.cpu.dtb.read_hits                            0                      
system.cpu.dtb.read_misses                          0                      
system.cpu.dtb.read_accesses                        0                      
system.cpu.dtb.write_hits                           0                      
system.cpu.dtb.write_misses                         0                      
system.cpu.dtb.write_accesses                       0                      
system.cpu.dtb.hits                                 0                      
system.cpu.dtb.misses                               0                      
system.cpu.dtb.accesses                             0                      
system.cpu.itb.read_hits                            0                      
system.cpu.itb.read_misses                          0                      
system.cpu.itb.read_accesses                        0                      
system.cpu.itb.write_hits                           0                      
system.cpu.itb.write_misses                         0                      
system.cpu.itb.write_accesses                       0                      
system.cpu.itb.hits                                 0                      
system.cpu.itb.misses                               0                      
system.cpu.itb.accesses                             0                      
system.cpu.workload.numSyscalls                   220                      
system.cpu.pwrStateResidencyTicks::ON         7686702                      
system.cpu.numCycles                          7686702                      
system.cpu.numWorkItemsStarted                      0                      
system.cpu.numWorkItemsCompleted                    0                      
system.cpu.committedInsts                      400425                      
system.cpu.committedOps                        401656                      
system.cpu.num_int_alu_accesses                399608                      
system.cpu.num_fp_alu_accesses                   1229                      
system.cpu.num_vec_alu_accesses                     0                      
system.cpu.num_func_calls                       22534                      
system.cpu.num_conditional_control_insts        65010                      
system.cpu.num_int_insts                       399608                      
system.cpu.num_fp_insts                          1229                      
system.cpu.num_vec_insts                            0                      
system.cpu.num_int_register_reads              504092                      
system.cpu.num_int_register_writes             266150                      
system.cpu.num_fp_register_reads                  988                      
system.cpu.num_fp_register_writes                 800                      
system.cpu.num_vec_register_reads                   0                      
system.cpu.num_vec_register_writes                  0                      
system.cpu.num_mem_refs                        163360                      
system.cpu.num_load_insts                      101680                      
system.cpu.num_store_insts                      61680                      
system.cpu.num_idle_cycles                         -0                      
system.cpu.num_busy_cycles                    7686702                      
system.cpu.not_idle_fraction                        1                      
system.cpu.idle_fraction                           -0                      
system.cpu.Branches                             87544                      
system.cpu.op_class::No_OpClass                   224      0.05%      0.05%
system.cpu.op_class::IntAlu                    237173     59.01%     59.07%
system.cpu.op_class::IntMult                      638      0.15%     59.23%
system.cpu.op_class::IntDiv                         4      0.00%     59.23%
system.cpu.op_class::FloatAdd                      11      0.00%     59.23%
system.cpu.op_class::FloatCmp                     170      0.04%     59.27%
system.cpu.op_class::FloatCvt                     128      0.03%     59.30%
system.cpu.op_class::FloatMult                      8      0.00%     59.31%
system.cpu.op_class::FloatMultAcc                  22      0.00%     59.31%
system.cpu.op_class::FloatDiv                      11      0.00%     59.31%
system.cpu.op_class::FloatMisc                    122      0.03%     59.34%
system.cpu.op_class::FloatSqrt                      5      0.00%     59.35%
system.cpu.op_class::SimdAdd                        0      0.00%     59.35%
system.cpu.op_class::SimdAddAcc                     0      0.00%     59.35%
system.cpu.op_class::SimdAlu                        0      0.00%     59.35%
system.cpu.op_class::SimdCmp                        0      0.00%     59.35%
system.cpu.op_class::SimdCvt                        0      0.00%     59.35%
system.cpu.op_class::SimdMisc                       0      0.00%     59.35%
system.cpu.op_class::SimdMult                       0      0.00%     59.35%
system.cpu.op_class::SimdMultAcc                    0      0.00%     59.35%
system.cpu.op_class::SimdShift                      0      0.00%     59.35%
system.cpu.op_class::SimdShiftAcc                   0      0.00%     59.35%
system.cpu.op_class::SimdSqrt                       0      0.00%     59.35%
system.cpu.op_class::SimdFloatAdd                   0      0.00%     59.35%
system.cpu.op_class::SimdFloatAlu                   0      0.00%     59.35%
system.cpu.op_class::SimdFloatCmp                   0      0.00%     59.35%
system.cpu.op_class::SimdFloatCvt                   0      0.00%     59.35%
system.cpu.op_class::SimdFloatDiv                   0      0.00%     59.35%
system.cpu.op_class::SimdFloatMisc                  0      0.00%     59.35%
system.cpu.op_class::SimdFloatMult                  0      0.00%     59.35%
system.cpu.op_class::SimdFloatMultAcc               0      0.00%     59.35%
system.cpu.op_class::SimdFloatSqrt                  0      0.00%     59.35%
system.cpu.op_class::MemRead                   101109     25.15%     84.50%
system.cpu.op_class::MemWrite                   61499     15.30%     99.81%
system.cpu.op_class::FloatMemRead                 571      0.14%     99.95%
system.cpu.op_class::FloatMemWrite                181      0.04%     99.99%
system.cpu.op_class::IprAccess                      0      0.00%     99.99%
system.cpu.op_class::InstPrefetch                   0      0.00%     99.99%
system.cpu.op_class::total                     401876                      
system.ruby.clk_domain.clock                        1                      
system.ruby.pwrStateResidencyTicks::UNDEFINED      7686702                      
system.ruby.delayHist::bucket_size                  1                      
system.ruby.delayHist::max_bucket                   9                      
system.ruby.delayHist::samples                 220666                      
system.ruby.delayHist                    |      220666    100.00%    100.00% |           0      0.00%    100.00% |           0      0.00%    100.00% |           0      0.00%    100.00% |           0      0.00%    100.00% |           0      0.00%    100.00% |           0      0.00%    100.00% |           0      0.00%    100.00% |           0      0.00%    100.00% |           0      0.00%    100.00%
system.ruby.delayHist::total                   220666                      
system.ruby.outstanding_req_hist_seqr::bucket_size            1                      
system.ruby.outstanding_req_hist_seqr::max_bucket            9                      
system.ruby.outstanding_req_hist_seqr::samples       631096                      
system.ruby.outstanding_req_hist_seqr::mean            1                      
system.ruby.outstanding_req_hist_seqr::gmean            1                      
system.ruby.outstanding_req_hist_seqr    |           0      0.00%      0.00% |      631096    100.00%    100.00% |           0      0.00%    100.00% |           0      0.00%    100.00% |           0      0.00%    100.00% |           0      0.00%    100.00% |           0      0.00%    100.00% |           0      0.00%    100.00% |           0      0.00%    100.00% |           0      0.00%    100.00%
system.ruby.outstanding_req_hist_seqr::total       631096                      
system.ruby.latency_hist_seqr::bucket_size           64                      
system.ruby.latency_hist_seqr::max_bucket          639                      
system.ruby.latency_hist_seqr::samples         631095                      
system.ruby.latency_hist_seqr::mean         11.179944                      
system.ruby.latency_hist_seqr::gmean         1.994552                      
system.ruby.latency_hist_seqr::stdev        27.065244                      
system.ruby.latency_hist_seqr            |      572515     90.71%     90.71% |       54551      8.64%     99.36% |        2716      0.43%     99.79% |         472      0.07%     99.86% |         440      0.06%     99.93% |         353      0.05%     99.99% |          31      0.00%     99.99% |           8      0.00%     99.99% |           0      0.00%     99.99% |           9      0.00%     99.99%
system.ruby.latency_hist_seqr::total           631095                      
system.ruby.hit_latency_hist_seqr::bucket_size            1                      
system.ruby.hit_latency_hist_seqr::max_bucket            9                      
system.ruby.hit_latency_hist_seqr::samples       520760                      
system.ruby.hit_latency_hist_seqr::mean             1                      
system.ruby.hit_latency_hist_seqr::gmean            1                      
system.ruby.hit_latency_hist_seqr        |           0      0.00%      0.00% |      520760    100.00%    100.00% |           0      0.00%    100.00% |           0      0.00%    100.00% |           0      0.00%    100.00% |           0      0.00%    100.00% |           0      0.00%    100.00% |           0      0.00%    100.00% |           0      0.00%    100.00% |           0      0.00%    100.00%
system.ruby.hit_latency_hist_seqr::total       520760                      
system.ruby.miss_latency_hist_seqr::bucket_size           64                      
system.ruby.miss_latency_hist_seqr::max_bucket          639                      
system.ruby.miss_latency_hist_seqr::samples       110335                      
system.ruby.miss_latency_hist_seqr::mean    59.227325                      
system.ruby.miss_latency_hist_seqr::gmean    51.887054                      
system.ruby.miss_latency_hist_seqr::stdev    37.312888                      
system.ruby.miss_latency_hist_seqr       |       51755     46.90%     46.90% |       54551     49.44%     96.34% |        2716      2.46%     98.80% |         472      0.42%     99.23% |         440      0.39%     99.63% |         353      0.31%     99.95% |          31      0.02%     99.98% |           8      0.00%     99.99% |           0      0.00%     99.99% |           9      0.00%     99.99%
system.ruby.miss_latency_hist_seqr::total       110335                      
system.ruby.Directory.incomplete_times_seqr       110334                      
system.ruby.dir_cntrl0.forwardFromDir.avg_buf_msgs     0.014353                      
system.ruby.dir_cntrl0.forwardFromDir.avg_stall_time     0.999951                      
system.ruby.dir_cntrl0.requestToDir.avg_buf_msgs     0.028707                      
system.ruby.dir_cntrl0.requestToDir.avg_stall_time    11.770148                      
system.ruby.dir_cntrl0.responseFromDir.avg_buf_msgs     0.014354                      
system.ruby.dir_cntrl0.responseFromDir.avg_stall_time     0.999991                      
system.ruby.dir_cntrl0.responseFromMemory.avg_buf_msgs     0.028707                      
system.ruby.dir_cntrl0.responseFromMemory.avg_stall_time     0.999991                      
system.ruby.dir_cntrl0.pwrStateResidencyTicks::UNDEFINED      7686702                      
system.ruby.l1_cntrl0.cacheMemory.demand_hits       520760                      
system.ruby.l1_cntrl0.cacheMemory.demand_misses       110335                      
system.ruby.l1_cntrl0.cacheMemory.demand_accesses       631095                      
system.ruby.l1_cntrl0.forwardToCache.avg_buf_msgs     0.014353                      
system.ruby.l1_cntrl0.forwardToCache.avg_stall_time     6.999655                      
system.ruby.l1_cntrl0.mandatoryQueue.avg_buf_msgs     0.082102                      
system.ruby.l1_cntrl0.mandatoryQueue.avg_stall_time     0.999999                      
system.ruby.l1_cntrl0.requestFromCache.avg_buf_msgs     0.057414                      
system.ruby.l1_cntrl0.requestFromCache.avg_stall_time     1.999999                      
system.ruby.l1_cntrl0.responseToCache.avg_buf_msgs     0.014354                      
system.ruby.l1_cntrl0.responseToCache.avg_stall_time     6.999931                      
system.ruby.l1_cntrl0.sequencer.pwrStateResidencyTicks::UNDEFINED      7686702                      
system.ruby.l1_cntrl0.pwrStateResidencyTicks::UNDEFINED      7686702                      
system.ruby.memctrl_clk_domain.clock                3                      
system.ruby.network.routers0.port_buffers03.avg_buf_msgs     0.014353                      
system.ruby.network.routers0.port_buffers03.avg_stall_time     5.999705                      
system.ruby.network.routers0.port_buffers04.avg_buf_msgs     0.014354                      
system.ruby.network.routers0.port_buffers04.avg_stall_time     5.999942                      
system.ruby.network.routers0.port_buffers07.avg_buf_msgs     0.086121                      
system.ruby.network.routers0.port_buffers07.avg_stall_time     6.770158                      
system.ruby.network.routers0.pwrStateResidencyTicks::UNDEFINED      7686702                      
system.ruby.network.routers0.percent_links_utilized     7.176875                      
system.ruby.network.routers0.msg_count.Control::2       110335                      
system.ruby.network.routers0.msg_count.Data::2       110331                      
system.ruby.network.routers0.msg_count.Response_Data::4       110335                      
system.ruby.network.routers0.msg_count.Writeback_Control::3       110331                      
system.ruby.network.routers0.msg_bytes.Control::2       882680                      
system.ruby.network.routers0.msg_bytes.Data::2      7943832                      
system.ruby.network.routers0.msg_bytes.Response_Data::4      7944120                      
system.ruby.network.routers0.msg_bytes.Writeback_Control::3       882648                      
system.ruby.network.routers1.port_buffers02.avg_buf_msgs     0.028707                      
system.ruby.network.routers1.port_buffers02.avg_stall_time    10.770150                      
system.ruby.network.routers1.port_buffers06.avg_buf_msgs     0.014353                      
system.ruby.network.routers1.port_buffers06.avg_stall_time     1.999902                      
system.ruby.network.routers1.port_buffers07.avg_buf_msgs     0.014354                      
system.ruby.network.routers1.port_buffers07.avg_stall_time     1.999981                      
system.ruby.network.routers1.pwrStateResidencyTicks::UNDEFINED      7686702                      
system.ruby.network.routers1.percent_links_utilized     7.176875                      
system.ruby.network.routers1.msg_count.Control::2       110335                      
system.ruby.network.routers1.msg_count.Data::2       110331                      
system.ruby.network.routers1.msg_count.Response_Data::4       110335                      
system.ruby.network.routers1.msg_count.Writeback_Control::3       110331                      
system.ruby.network.routers1.msg_bytes.Control::2       882680                      
system.ruby.network.routers1.msg_bytes.Data::2      7943832                      
system.ruby.network.routers1.msg_bytes.Response_Data::4      7944120                      
system.ruby.network.routers1.msg_bytes.Writeback_Control::3       882648                      
system.ruby.network.int_link_buffers02.avg_buf_msgs     0.028707                      
system.ruby.network.int_link_buffers02.avg_stall_time     7.770156                      
system.ruby.network.int_link_buffers08.avg_buf_msgs     0.014353                      
system.ruby.network.int_link_buffers08.avg_stall_time     2.999854                      
system.ruby.network.int_link_buffers09.avg_buf_msgs     0.014354                      
system.ruby.network.int_link_buffers09.avg_stall_time     2.999972                      
system.ruby.network.int_link_buffers13.avg_buf_msgs     0.014353                      
system.ruby.network.int_link_buffers13.avg_stall_time     4.999755                      
system.ruby.network.int_link_buffers14.avg_buf_msgs     0.014354                      
system.ruby.network.int_link_buffers14.avg_stall_time     4.999952                      
system.ruby.network.int_link_buffers17.avg_buf_msgs     0.028707                      
system.ruby.network.int_link_buffers17.avg_stall_time     9.770152                      
system.ruby.network.routers2.port_buffers03.avg_buf_msgs     0.014353                      
system.ruby.network.routers2.port_buffers03.avg_stall_time     3.999804                      
system.ruby.network.routers2.port_buffers04.avg_buf_msgs     0.014354                      
system.ruby.network.routers2.port_buffers04.avg_stall_time     3.999962                      
system.ruby.network.routers2.port_buffers07.avg_buf_msgs     0.028707                      
system.ruby.network.routers2.port_buffers07.avg_stall_time     8.770155                      
system.ruby.network.routers2.pwrStateResidencyTicks::UNDEFINED      7686702                      
system.ruby.network.routers2.percent_links_utilized     7.176875                      
system.ruby.network.routers2.msg_count.Control::2       110335                      
system.ruby.network.routers2.msg_count.Data::2       110331                      
system.ruby.network.routers2.msg_count.Response_Data::4       110335                      
system.ruby.network.routers2.msg_count.Writeback_Control::3       110331                      
system.ruby.network.routers2.msg_bytes.Control::2       882680                      
system.ruby.network.routers2.msg_bytes.Data::2      7943832                      
system.ruby.network.routers2.msg_bytes.Response_Data::4      7944120                      
system.ruby.network.routers2.msg_bytes.Writeback_Control::3       882648                      
system.ruby.network.pwrStateResidencyTicks::UNDEFINED      7686702                      
system.ruby.network.msg_count.Control          331005                      
system.ruby.network.msg_count.Data             330993                      
system.ruby.network.msg_count.Response_Data       331005                      
system.ruby.network.msg_count.Writeback_Control       330993                      
system.ruby.network.msg_byte.Control          2648040                      
system.ruby.network.msg_byte.Data            23831496                      
system.ruby.network.msg_byte.Response_Data     23832360                      
system.ruby.network.msg_byte.Writeback_Control      2647944                      
system.sys_port_proxy.pwrStateResidencyTicks::UNDEFINED      7686702                      
system.ruby.network.routers0.throttle0.link_utilization     7.176979                      
system.ruby.network.routers0.throttle0.msg_count.Response_Data::4       110335                      
system.ruby.network.routers0.throttle0.msg_count.Writeback_Control::3       110331                      
system.ruby.network.routers0.throttle0.msg_bytes.Response_Data::4      7944120                      
system.ruby.network.routers0.throttle0.msg_bytes.Writeback_Control::3       882648                      
system.ruby.network.routers0.throttle1.link_utilization     7.176771                      
system.ruby.network.routers0.throttle1.msg_count.Control::2       110335                      
system.ruby.network.routers0.throttle1.msg_count.Data::2       110331                      
system.ruby.network.routers0.throttle1.msg_bytes.Control::2       882680                      
system.ruby.network.routers0.throttle1.msg_bytes.Data::2      7943832                      
system.ruby.network.routers1.throttle0.link_utilization     7.176771                      
system.ruby.network.routers1.throttle0.msg_count.Control::2       110335                      
system.ruby.network.routers1.throttle0.msg_count.Data::2       110331                      
system.ruby.network.routers1.throttle0.msg_bytes.Control::2       882680                      
system.ruby.network.routers1.throttle0.msg_bytes.Data::2      7943832                      
system.ruby.network.routers1.throttle1.link_utilization     7.176979                      
system.ruby.network.routers1.throttle1.msg_count.Response_Data::4       110335                      
system.ruby.network.routers1.throttle1.msg_count.Writeback_Control::3       110331                      
system.ruby.network.routers1.throttle1.msg_bytes.Response_Data::4      7944120                      
system.ruby.network.routers1.throttle1.msg_bytes.Writeback_Control::3       882648                      
system.ruby.network.routers2.throttle0.link_utilization     7.176979                      
system.ruby.network.routers2.throttle0.msg_count.Response_Data::4       110335                      
system.ruby.network.routers2.throttle0.msg_count.Writeback_Control::3       110331                      
system.ruby.network.routers2.throttle0.msg_bytes.Response_Data::4      7944120                      
system.ruby.network.routers2.throttle0.msg_bytes.Writeback_Control::3       882648                      
system.ruby.network.routers2.throttle1.link_utilization     7.176771                      
system.ruby.network.routers2.throttle1.msg_count.Control::2       110335                      
system.ruby.network.routers2.throttle1.msg_count.Data::2       110331                      
system.ruby.network.routers2.throttle1.msg_bytes.Control::2       882680                      
system.ruby.network.routers2.throttle1.msg_bytes.Data::2      7943832                      
system.ruby.delayVCHist.vnet_1::bucket_size            1                      
system.ruby.delayVCHist.vnet_1::max_bucket            9                      
system.ruby.delayVCHist.vnet_1::samples        110335                      
system.ruby.delayVCHist.vnet_1           |      110335    100.00%    100.00% |           0      0.00%    100.00% |           0      0.00%    100.00% |           0      0.00%    100.00% |           0      0.00%    100.00% |           0      0.00%    100.00% |           0      0.00%    100.00% |           0      0.00%    100.00% |           0      0.00%    100.00% |           0      0.00%    100.00%
system.ruby.delayVCHist.vnet_1::total          110335                      
system.ruby.delayVCHist.vnet_2::bucket_size            1                      
system.ruby.delayVCHist.vnet_2::max_bucket            9                      
system.ruby.delayVCHist.vnet_2::samples        110331                      
system.ruby.delayVCHist.vnet_2           |      110331    100.00%    100.00% |           0      0.00%    100.00% |           0      0.00%    100.00% |           0      0.00%    100.00% |           0      0.00%    100.00% |           0      0.00%    100.00% |           0      0.00%    100.00% |           0      0.00%    100.00% |           0      0.00%    100.00% |           0      0.00%    100.00%
system.ruby.delayVCHist.vnet_2::total          110331                      
system.ruby.LD.latency_hist_seqr::bucket_size           64                      
system.ruby.LD.latency_hist_seqr::max_bucket          639                      
system.ruby.LD.latency_hist_seqr::samples        99993                      
system.ruby.LD.latency_hist_seqr::mean      27.953896                      
system.ruby.LD.latency_hist_seqr::gmean      6.911195                      
system.ruby.LD.latency_hist_seqr::stdev     37.029990                      
system.ruby.LD.latency_hist_seqr         |       78439     78.44%     78.44% |       20034     20.03%     98.47% |        1016      1.01%     99.49% |         184      0.18%     99.67% |         168      0.16%     99.84% |         129      0.12%     99.97% |          16      0.01%     99.99% |           4      0.00%     99.99% |           0      0.00%     99.99% |           3      0.00%     99.99%
system.ruby.LD.latency_hist_seqr::total         99993                      
system.ruby.LD.hit_latency_hist_seqr::bucket_size            1                      
system.ruby.LD.hit_latency_hist_seqr::max_bucket            9                      
system.ruby.LD.hit_latency_hist_seqr::samples        50054                      
system.ruby.LD.hit_latency_hist_seqr::mean            1                      
system.ruby.LD.hit_latency_hist_seqr::gmean            1                      
system.ruby.LD.hit_latency_hist_seqr     |           0      0.00%      0.00% |       50054    100.00%    100.00% |           0      0.00%    100.00% |           0      0.00%    100.00% |           0      0.00%    100.00% |           0      0.00%    100.00% |           0      0.00%    100.00% |           0      0.00%    100.00% |           0      0.00%    100.00% |           0      0.00%    100.00%
system.ruby.LD.hit_latency_hist_seqr::total        50054                      
system.ruby.LD.miss_latency_hist_seqr::bucket_size           64                      
system.ruby.LD.miss_latency_hist_seqr::max_bucket          639                      
system.ruby.LD.miss_latency_hist_seqr::samples        49939                      
system.ruby.LD.miss_latency_hist_seqr::mean    54.969863                      
system.ruby.LD.miss_latency_hist_seqr::gmean    47.977726                      
system.ruby.LD.miss_latency_hist_seqr::stdev    35.882424                      
system.ruby.LD.miss_latency_hist_seqr    |       28385     56.83%     56.83% |       20034     40.11%     96.95% |        1016      2.03%     98.99% |         184      0.36%     99.35% |         168      0.33%     99.69% |         129      0.25%     99.95% |          16      0.03%     99.98% |           4      0.00%     99.99% |           0      0.00%     99.99% |           3      0.00%     99.99%
system.ruby.LD.miss_latency_hist_seqr::total        49939                      
system.ruby.ST.latency_hist_seqr::bucket_size           64                      
system.ruby.ST.latency_hist_seqr::max_bucket          639                      
system.ruby.ST.latency_hist_seqr::samples        59993                      
system.ruby.ST.latency_hist_seqr::mean      14.201556                      
system.ruby.ST.latency_hist_seqr::gmean      2.823692                      
system.ruby.ST.latency_hist_seqr::stdev     27.815507                      
system.ruby.ST.latency_hist_seqr         |       54827     91.38%     91.38% |        4663      7.77%     99.16% |         384      0.64%     99.80% |          34      0.05%     99.85% |          44      0.07%     99.93% |          35      0.05%     99.98% |           3      0.00%     99.99% |           0      0.00%     99.99% |           0      0.00%     99.99% |           3      0.00%     99.99%
system.ruby.ST.latency_hist_seqr::total         59993                      
system.ruby.ST.hit_latency_hist_seqr::bucket_size            1                      
system.ruby.ST.hit_latency_hist_seqr::max_bucket            9                      
system.ruby.ST.hit_latency_hist_seqr::samples        43420                      
system.ruby.ST.hit_latency_hist_seqr::mean            1                      
system.ruby.ST.hit_latency_hist_seqr::gmean            1                      
system.ruby.ST.hit_latency_hist_seqr     |           0      0.00%      0.00% |       43420    100.00%    100.00% |           0      0.00%    100.00% |           0      0.00%    100.00% |           0      0.00%    100.00% |           0      0.00%    100.00% |           0      0.00%    100.00% |           0      0.00%    100.00% |           0      0.00%    100.00% |           0      0.00%    100.00%
system.ruby.ST.hit_latency_hist_seqr::total        43420                      
system.ruby.ST.miss_latency_hist_seqr::bucket_size           64                      
system.ruby.ST.miss_latency_hist_seqr::max_bucket          639                      
system.ruby.ST.miss_latency_hist_seqr::samples        16573                      
system.ruby.ST.miss_latency_hist_seqr::mean    48.788632                      
system.ruby.ST.miss_latency_hist_seqr::gmean    42.847400                      
system.ruby.ST.miss_latency_hist_seqr::stdev    33.880638                      
system.ruby.ST.miss_latency_hist_seqr    |       11407     68.82%     68.82% |        4663     28.13%     96.96% |         384      2.31%     99.28% |          34      0.20%     99.48% |          44      0.26%     99.75% |          35      0.21%     99.96% |           3      0.01%     99.98% |           0      0.00%     99.98% |           0      0.00%     99.98% |           3      0.01%     99.99%
system.ruby.ST.miss_latency_hist_seqr::total        16573                      
system.ruby.IFETCH.latency_hist_seqr::bucket_size           64                      
system.ruby.IFETCH.latency_hist_seqr::max_bucket          639                      
system.ruby.IFETCH.latency_hist_seqr::samples       467735                      
system.ruby.IFETCH.latency_hist_seqr::mean     7.276900                      
system.ruby.IFETCH.latency_hist_seqr::gmean     1.469386                      
system.ruby.IFETCH.latency_hist_seqr::stdev    22.773551                      
system.ruby.IFETCH.latency_hist_seqr     |      435880     93.18%     93.18% |       29849      6.38%     99.57% |        1316      0.28%     99.85% |         254      0.05%     99.90% |         228      0.04%     99.95% |         189      0.04%     99.99% |          12      0.00%     99.99% |           4      0.00%     99.99% |           0      0.00%     99.99% |           3      0.00%     99.99%
system.ruby.IFETCH.latency_hist_seqr::total       467735                      
system.ruby.IFETCH.hit_latency_hist_seqr::bucket_size            1                      
system.ruby.IFETCH.hit_latency_hist_seqr::max_bucket            9                      
system.ruby.IFETCH.hit_latency_hist_seqr::samples       423951                      
system.ruby.IFETCH.hit_latency_hist_seqr::mean            1                      
system.ruby.IFETCH.hit_latency_hist_seqr::gmean            1                      
system.ruby.IFETCH.hit_latency_hist_seqr |           0      0.00%      0.00% |      423951    100.00%    100.00% |           0      0.00%    100.00% |           0      0.00%    100.00% |           0      0.00%    100.00% |           0      0.00%    100.00% |           0      0.00%    100.00% |           0      0.00%    100.00% |           0      0.00%    100.00% |           0      0.00%    100.00%
system.ruby.IFETCH.hit_latency_hist_seqr::total       423951                      
system.ruby.IFETCH.miss_latency_hist_seqr::bucket_size           64                      
system.ruby.IFETCH.miss_latency_hist_seqr::max_bucket          639                      
system.ruby.IFETCH.miss_latency_hist_seqr::samples        43784                      
system.ruby.IFETCH.miss_latency_hist_seqr::mean    68.054768                      
system.ruby.IFETCH.miss_latency_hist_seqr::gmean    61.020938                      
system.ruby.IFETCH.miss_latency_hist_seqr::stdev    38.275806                      
system.ruby.IFETCH.miss_latency_hist_seqr |       11929     27.24%     27.24% |       29849     68.17%     95.41% |        1316      3.00%     98.42% |         254      0.58%     99.00% |         228      0.52%     99.52% |         189      0.43%     99.95% |          12      0.02%     99.98% |           4      0.00%     99.99% |           0      0.00%     99.99% |           3      0.00%     99.99%
system.ruby.IFETCH.miss_latency_hist_seqr::total        43784                      
system.ruby.Load_Linked.latency_hist_seqr::bucket_size            8                      
system.ruby.Load_Linked.latency_hist_seqr::max_bucket           79                      
system.ruby.Load_Linked.latency_hist_seqr::samples         1687                      
system.ruby.Load_Linked.latency_hist_seqr::mean     1.820391                      
system.ruby.Load_Linked.latency_hist_seqr::gmean     1.085793                      
system.ruby.Load_Linked.latency_hist_seqr::stdev     5.623549                      
system.ruby.Load_Linked.latency_hist_seqr |        1648     97.68%     97.68% |           0      0.00%     97.68% |           0      0.00%     97.68% |           0      0.00%     97.68% |          34      2.01%     99.70% |           0      0.00%     99.70% |           0      0.00%     99.70% |           0      0.00%     99.70% |           5      0.29%     99.99% |           0      0.00%     99.99%
system.ruby.Load_Linked.latency_hist_seqr::total         1687                      
system.ruby.Load_Linked.hit_latency_hist_seqr::bucket_size            1                      
system.ruby.Load_Linked.hit_latency_hist_seqr::max_bucket            9                      
system.ruby.Load_Linked.hit_latency_hist_seqr::samples         1648                      
system.ruby.Load_Linked.hit_latency_hist_seqr::mean            1                      
system.ruby.Load_Linked.hit_latency_hist_seqr::gmean            1                      
system.ruby.Load_Linked.hit_latency_hist_seqr |           0      0.00%      0.00% |        1648    100.00%    100.00% |           0      0.00%    100.00% |           0      0.00%    100.00% |           0      0.00%    100.00% |           0      0.00%    100.00% |           0      0.00%    100.00% |           0      0.00%    100.00% |           0      0.00%    100.00% |           0      0.00%    100.00%
system.ruby.Load_Linked.hit_latency_hist_seqr::total         1648                      
system.ruby.Load_Linked.miss_latency_hist_seqr::bucket_size            8                      
system.ruby.Load_Linked.miss_latency_hist_seqr::max_bucket           79                      
system.ruby.Load_Linked.miss_latency_hist_seqr::samples           39                      
system.ruby.Load_Linked.miss_latency_hist_seqr::mean    36.487179                      
system.ruby.Load_Linked.miss_latency_hist_seqr::gmean    35.179866                      
system.ruby.Load_Linked.miss_latency_hist_seqr::stdev    11.854094                      
system.ruby.Load_Linked.miss_latency_hist_seqr |           0      0.00%      0.00% |           0      0.00%      0.00% |           0      0.00%      0.00% |           0      0.00%      0.00% |          34     87.17%     87.17% |           0      0.00%     87.17% |           0      0.00%     87.17% |           0      0.00%     87.17% |           5     12.82%     99.99% |           0      0.00%     99.99%
system.ruby.Load_Linked.miss_latency_hist_seqr::total           39                      
system.ruby.Store_Conditional.latency_hist_seqr::bucket_size            1                      
system.ruby.Store_Conditional.latency_hist_seqr::max_bucket            9                      
system.ruby.Store_Conditional.latency_hist_seqr::samples         1687                      
system.ruby.Store_Conditional.latency_hist_seqr::mean            1                      
system.ruby.Store_Conditional.latency_hist_seqr::gmean            1                      
system.ruby.Store_Conditional.latency_hist_seqr |           0      0.00%      0.00% |        1687    100.00%    100.00% |           0      0.00%    100.00% |           0      0.00%    100.00% |           0      0.00%    100.00% |           0      0.00%    100.00% |           0      0.00%    100.00% |           0      0.00%    100.00% |           0      0.00%    100.00% |           0      0.00%    100.00%
system.ruby.Store_Conditional.latency_hist_seqr::total         1687                      
system.ruby.Store_Conditional.hit_latency_hist_seqr::bucket_size            1                      
system.ruby.Store_Conditional.hit_latency_hist_seqr::max_bucket            9                      
system.ruby.Store_Conditional.hit_latency_hist_seqr::samples         1687                      
system.ruby.Store_Conditional.hit_latency_hist_seqr::mean            1                      
system.ruby.Store_Conditional.hit_latency_hist_seqr::gmean            1                      
system.ruby.Store_Conditional.hit_latency_hist_seqr |           0      0.00%      0.00% |        1687    100.00%    100.00% |           0      0.00%    100.00% |           0      0.00%    100.00% |           0      0.00%    100.00% |           0      0.00%    100.00% |           0      0.00%    100.00% |           0      0.00%    100.00% |           0      0.00%    100.00% |           0      0.00%    100.00%
system.ruby.Store_Conditional.hit_latency_hist_seqr::total         1687                      
system.ruby.Directory.miss_mach_latency_hist_seqr::bucket_size           64                      
system.ruby.Directory.miss_mach_latency_hist_seqr::max_bucket          639                      
system.ruby.Directory.miss_mach_latency_hist_seqr::samples       110335                      
system.ruby.Directory.miss_mach_latency_hist_seqr::mean    59.227325                      
system.ruby.Directory.miss_mach_latency_hist_seqr::gmean    51.887054                      
system.ruby.Directory.miss_mach_latency_hist_seqr::stdev    37.312888                      
system.ruby.Directory.miss_mach_latency_hist_seqr |       51755     46.90%     46.90% |       54551     49.44%     96.34% |        2716      2.46%     98.80% |         472      0.42%     99.23% |         440      0.39%     99.63% |         353      0.31%     99.95% |          31      0.02%     99.98% |           8      0.00%     99.99% |           0      0.00%     99.99% |           9      0.00%     99.99%
system.ruby.Directory.miss_mach_latency_hist_seqr::total       110335                      
system.ruby.Directory.miss_latency_hist_seqr.issue_to_initial_request::bucket_size            1                      
system.ruby.Directory.miss_latency_hist_seqr.issue_to_initial_request::max_bucket            9                      
system.ruby.Directory.miss_latency_hist_seqr.issue_to_initial_request::samples            1                      
system.ruby.Directory.miss_latency_hist_seqr.issue_to_initial_request::stdev          nan                      
system.ruby.Directory.miss_latency_hist_seqr.issue_to_initial_request |           1    100.00%    100.00% |           0      0.00%    100.00% |           0      0.00%    100.00% |           0      0.00%    100.00% |           0      0.00%    100.00% |           0      0.00%    100.00% |           0      0.00%    100.00% |           0      0.00%    100.00% |           0      0.00%    100.00% |           0      0.00%    100.00%
system.ruby.Directory.miss_latency_hist_seqr.issue_to_initial_request::total            1                      
system.ruby.Directory.miss_latency_hist_seqr.initial_to_forward::bucket_size            1                      
system.ruby.Directory.miss_latency_hist_seqr.initial_to_forward::max_bucket            9                      
system.ruby.Directory.miss_latency_hist_seqr.initial_to_forward::samples            1                      
system.ruby.Directory.miss_latency_hist_seqr.initial_to_forward::stdev          nan                      
system.ruby.Directory.miss_latency_hist_seqr.initial_to_forward |           1    100.00%    100.00% |           0      0.00%    100.00% |           0      0.00%    100.00% |           0      0.00%    100.00% |           0      0.00%    100.00% |           0      0.00%    100.00% |           0      0.00%    100.00% |           0      0.00%    100.00% |           0      0.00%    100.00% |           0      0.00%    100.00%
system.ruby.Directory.miss_latency_hist_seqr.initial_to_forward::total            1                      
system.ruby.Directory.miss_latency_hist_seqr.forward_to_first_response::bucket_size            1                      
system.ruby.Directory.miss_latency_hist_seqr.forward_to_first_response::max_bucket            9                      
system.ruby.Directory.miss_latency_hist_seqr.forward_to_first_response::samples            1                      
system.ruby.Directory.miss_latency_hist_seqr.forward_to_first_response::stdev          nan                      
system.ruby.Directory.miss_latency_hist_seqr.forward_to_first_response |           1    100.00%    100.00% |           0      0.00%    100.00% |           0      0.00%    100.00% |           0      0.00%    100.00% |           0      0.00%    100.00% |           0      0.00%    100.00% |           0      0.00%    100.00% |           0      0.00%    100.00% |           0      0.00%    100.00% |           0      0.00%    100.00%
system.ruby.Directory.miss_latency_hist_seqr.forward_to_first_response::total            1                      
system.ruby.Directory.miss_latency_hist_seqr.first_response_to_completion::bucket_size            8                      
system.ruby.Directory.miss_latency_hist_seqr.first_response_to_completion::max_bucket           79                      
system.ruby.Directory.miss_latency_hist_seqr.first_response_to_completion::samples            1                      
system.ruby.Directory.miss_latency_hist_seqr.first_response_to_completion::mean           75                      
system.ruby.Directory.miss_latency_hist_seqr.first_response_to_completion::gmean    74.999999                      
system.ruby.Directory.miss_latency_hist_seqr.first_response_to_completion::stdev          nan                      
system.ruby.Directory.miss_latency_hist_seqr.first_response_to_completion |           0      0.00%      0.00% |           0      0.00%      0.00% |           0      0.00%      0.00% |           0      0.00%      0.00% |           0      0.00%      0.00% |           0      0.00%      0.00% |           0      0.00%      0.00% |           0      0.00%      0.00% |           0      0.00%      0.00% |           1    100.00%    100.00%
system.ruby.Directory.miss_latency_hist_seqr.first_response_to_completion::total            1                      
system.ruby.LD.Directory.miss_type_mach_latency_hist_seqr::bucket_size           64                      
system.ruby.LD.Directory.miss_type_mach_latency_hist_seqr::max_bucket          639                      
system.ruby.LD.Directory.miss_type_mach_latency_hist_seqr::samples        49939                      
system.ruby.LD.Directory.miss_type_mach_latency_hist_seqr::mean    54.969863                      
system.ruby.LD.Directory.miss_type_mach_latency_hist_seqr::gmean    47.977726                      
system.ruby.LD.Directory.miss_type_mach_latency_hist_seqr::stdev    35.882424                      
system.ruby.LD.Directory.miss_type_mach_latency_hist_seqr |       28385     56.83%     56.83% |       20034     40.11%     96.95% |        1016      2.03%     98.99% |         184      0.36%     99.35% |         168      0.33%     99.69% |         129      0.25%     99.95% |          16      0.03%     99.98% |           4      0.00%     99.99% |           0      0.00%     99.99% |           3      0.00%     99.99%
system.ruby.LD.Directory.miss_type_mach_latency_hist_seqr::total        49939                      
system.ruby.ST.Directory.miss_type_mach_latency_hist_seqr::bucket_size           64                      
system.ruby.ST.Directory.miss_type_mach_latency_hist_seqr::max_bucket          639                      
system.ruby.ST.Directory.miss_type_mach_latency_hist_seqr::samples        16573                      
system.ruby.ST.Directory.miss_type_mach_latency_hist_seqr::mean    48.788632                      
system.ruby.ST.Directory.miss_type_mach_latency_hist_seqr::gmean    42.847400                      
system.ruby.ST.Directory.miss_type_mach_latency_hist_seqr::stdev    33.880638                      
system.ruby.ST.Directory.miss_type_mach_latency_hist_seqr |       11407     68.82%     68.82% |        4663     28.13%     96.96% |         384      2.31%     99.28% |          34      0.20%     99.48% |          44      0.26%     99.75% |          35      0.21%     99.96% |           3      0.01%     99.98% |           0      0.00%     99.98% |           0      0.00%     99.98% |           3      0.01%     99.99%
system.ruby.ST.Directory.miss_type_mach_latency_hist_seqr::total        16573                      
system.ruby.IFETCH.Directory.miss_type_mach_latency_hist_seqr::bucket_size           64                      
system.ruby.IFETCH.Directory.miss_type_mach_latency_hist_seqr::max_bucket          639                      
system.ruby.IFETCH.Directory.miss_type_mach_latency_hist_seqr::samples        43784                      
system.ruby.IFETCH.Directory.miss_type_mach_latency_hist_seqr::mean    68.054768                      
system.ruby.IFETCH.Directory.miss_type_mach_latency_hist_seqr::gmean    61.020938                      
system.ruby.IFETCH.Directory.miss_type_mach_latency_hist_seqr::stdev    38.275806                      
system.ruby.IFETCH.Directory.miss_type_mach_latency_hist_seqr |       11929     27.24%     27.24% |       29849     68.17%     95.41% |        1316      3.00%     98.42% |         254      0.58%     99.00% |         228      0.52%     99.52% |         189      0.43%     99.95% |          12      0.02%     99.98% |           4      0.00%     99.99% |           0      0.00%     99.99% |           3      0.00%     99.99%
system.ruby.IFETCH.Directory.miss_type_mach_latency_hist_seqr::total        43784                      
system.ruby.Load_Linked.Directory.miss_type_mach_latency_hist_seqr::bucket_size            8                      
system.ruby.Load_Linked.Directory.miss_type_mach_latency_hist_seqr::max_bucket           79                      
system.ruby.Load_Linked.Directory.miss_type_mach_latency_hist_seqr::samples           39                      
system.ruby.Load_Linked.Directory.miss_type_mach_latency_hist_seqr::mean    36.487179                      
system.ruby.Load_Linked.Directory.miss_type_mach_latency_hist_seqr::gmean    35.179866                      
system.ruby.Load_Linked.Directory.miss_type_mach_latency_hist_seqr::stdev    11.854094                      
system.ruby.Load_Linked.Directory.miss_type_mach_latency_hist_seqr |           0      0.00%      0.00% |           0      0.00%      0.00% |           0      0.00%      0.00% |           0      0.00%      0.00% |          34     87.17%     87.17% |           0      0.00%     87.17% |           0      0.00%     87.17% |           0      0.00%     87.17% |           5     12.82%     99.99% |           0      0.00%     99.99%
system.ruby.Load_Linked.Directory.miss_type_mach_latency_hist_seqr::total           39                      
system.ruby.Directory_Controller.GETX          110335      0.00%      0.00%
system.ruby.Directory_Controller.PUTX          110331      0.00%      0.00%
system.ruby.Directory_Controller.Memory_Data       110335      0.00%      0.00%
system.ruby.Directory_Controller.Memory_Ack       110331      0.00%      0.00%
system.ruby.Directory_Controller.I.GETX        110335      0.00%      0.00%
system.ruby.Directory_Controller.M.PUTX        110331      0.00%      0.00%
system.ruby.Directory_Controller.IM.Memory_Data       110335      0.00%      0.00%
system.ruby.Directory_Controller.MI.Memory_Ack       110331      0.00%      0.00%
system.ruby.L1Cache_Controller.Load             99993      0.00%      0.00%
system.ruby.L1Cache_Controller.Ifetch          467735      0.00%      0.00%
system.ruby.L1Cache_Controller.Store            63367      0.00%      0.00%
system.ruby.L1Cache_Controller.Data            110335      0.00%      0.00%
system.ruby.L1Cache_Controller.Replacement       110331      0.00%      0.00%
system.ruby.L1Cache_Controller.Writeback_Ack       110331      0.00%      0.00%
system.ruby.L1Cache_Controller.I.Load           49939      0.00%      0.00%
system.ruby.L1Cache_Controller.I.Ifetch         43784      0.00%      0.00%
system.ruby.L1Cache_Controller.I.Store          16612      0.00%      0.00%
system.ruby.L1Cache_Controller.M.Load           50054      0.00%      0.00%
system.ruby.L1Cache_Controller.M.Ifetch        423951      0.00%      0.00%
system.ruby.L1Cache_Controller.M.Store          46755      0.00%      0.00%
system.ruby.L1Cache_Controller.M.Replacement       110331      0.00%      0.00%
system.ruby.L1Cache_Controller.MI.Writeback_Ack       110331      0.00%      0.00%
system.ruby.L1Cache_Controller.IS.Data          93723      0.00%      0.00%
system.ruby.L1Cache_Controller.IM.Data          16612      0.00%      0.00%

---------- End Simulation Statistics   ----------
