
---------- Begin Simulation Statistics ----------
sim_seconds                                  0.000389                      
sim_ticks                                   389380500                      
final_tick                                  389380500                      
sim_freq                                 1000000000000                      
host_inst_rate                                 139319                      
host_op_rate                                   139744                      
host_tick_rate                              137819974                      
host_mem_usage                                 402256                      
host_seconds                                     2.82                      
sim_insts                                      393610                      
sim_ops                                        394815                      
system.voltage_domain.voltage                       1                      
system.clk_domain.clock                          1000                      
system.physmem.pwrStateResidencyTicks::UNDEFINED    389380500                      
system.physmem.bytes_read::cpu.inst             82816                      
system.physmem.bytes_read::cpu.data             34048                      
system.physmem.bytes_read::total               116864                      
system.physmem.bytes_inst_read::cpu.inst        82816                      
system.physmem.bytes_inst_read::total           82816                      
system.physmem.num_reads::cpu.inst               1294                      
system.physmem.num_reads::cpu.data                532                      
system.physmem.num_reads::total                  1826                      
system.physmem.bw_read::cpu.inst            212686562                      
system.physmem.bw_read::cpu.data             87441461                      
system.physmem.bw_read::total               300128023                      
system.physmem.bw_inst_read::cpu.inst       212686562                      
system.physmem.bw_inst_read::total          212686562                      
system.physmem.bw_total::cpu.inst           212686562                      
system.physmem.bw_total::cpu.data            87441461                      
system.physmem.bw_total::total              300128023                      
system.physmem.readReqs                          1826                      
system.physmem.writeReqs                            0                      
system.physmem.readBursts                        1826                      
system.physmem.writeBursts                          0                      
system.physmem.bytesReadDRAM                   116864                      
system.physmem.bytesReadWrQ                         0                      
system.physmem.bytesWritten                         0                      
system.physmem.bytesReadSys                    116864                      
system.physmem.bytesWrittenSys                      0                      
system.physmem.servicedByWrQ                        0                      
system.physmem.mergedWrBursts                       0                      
system.physmem.neitherReadNorWriteReqs              0                      
system.physmem.perBankRdBursts::0                 228                      
system.physmem.perBankRdBursts::1                 263                      
system.physmem.perBankRdBursts::2                 167                      
system.physmem.perBankRdBursts::3                 170                      
system.physmem.perBankRdBursts::4                 148                      
system.physmem.perBankRdBursts::5                  97                      
system.physmem.perBankRdBursts::6                 118                      
system.physmem.perBankRdBursts::7                  53                      
system.physmem.perBankRdBursts::8                  62                      
system.physmem.perBankRdBursts::9                  64                      
system.physmem.perBankRdBursts::10                 21                      
system.physmem.perBankRdBursts::11                 43                      
system.physmem.perBankRdBursts::12                 80                      
system.physmem.perBankRdBursts::13                 99                      
system.physmem.perBankRdBursts::14                109                      
system.physmem.perBankRdBursts::15                104                      
system.physmem.perBankWrBursts::0                   0                      
system.physmem.perBankWrBursts::1                   0                      
system.physmem.perBankWrBursts::2                   0                      
system.physmem.perBankWrBursts::3                   0                      
system.physmem.perBankWrBursts::4                   0                      
system.physmem.perBankWrBursts::5                   0                      
system.physmem.perBankWrBursts::6                   0                      
system.physmem.perBankWrBursts::7                   0                      
system.physmem.perBankWrBursts::8                   0                      
system.physmem.perBankWrBursts::9                   0                      
system.physmem.perBankWrBursts::10                  0                      
system.physmem.perBankWrBursts::11                  0                      
system.physmem.perBankWrBursts::12                  0                      
system.physmem.perBankWrBursts::13                  0                      
system.physmem.perBankWrBursts::14                  0                      
system.physmem.perBankWrBursts::15                  0                      
system.physmem.numRdRetry                           0                      
system.physmem.numWrRetry                           0                      
system.physmem.totGap                       389284000                      
system.physmem.readPktSize::0                       0                      
system.physmem.readPktSize::1                       0                      
system.physmem.readPktSize::2                       0                      
system.physmem.readPktSize::3                       0                      
system.physmem.readPktSize::4                       0                      
system.physmem.readPktSize::5                       0                      
system.physmem.readPktSize::6                    1826                      
system.physmem.writePktSize::0                      0                      
system.physmem.writePktSize::1                      0                      
system.physmem.writePktSize::2                      0                      
system.physmem.writePktSize::3                      0                      
system.physmem.writePktSize::4                      0                      
system.physmem.writePktSize::5                      0                      
system.physmem.writePktSize::6                      0                      
system.physmem.rdQLenPdf::0                      1611                      
system.physmem.rdQLenPdf::1                       200                      
system.physmem.rdQLenPdf::2                        15                      
system.physmem.rdQLenPdf::3                         0                      
system.physmem.rdQLenPdf::4                         0                      
system.physmem.rdQLenPdf::5                         0                      
system.physmem.rdQLenPdf::6                         0                      
system.physmem.rdQLenPdf::7                         0                      
system.physmem.rdQLenPdf::8                         0                      
system.physmem.rdQLenPdf::9                         0                      
system.physmem.rdQLenPdf::10                        0                      
system.physmem.rdQLenPdf::11                        0                      
system.physmem.rdQLenPdf::12                        0                      
system.physmem.rdQLenPdf::13                        0                      
system.physmem.rdQLenPdf::14                        0                      
system.physmem.rdQLenPdf::15                        0                      
system.physmem.rdQLenPdf::16                        0                      
system.physmem.rdQLenPdf::17                        0                      
system.physmem.rdQLenPdf::18                        0                      
system.physmem.rdQLenPdf::19                        0                      
system.physmem.rdQLenPdf::20                        0                      
system.physmem.rdQLenPdf::21                        0                      
system.physmem.rdQLenPdf::22                        0                      
system.physmem.rdQLenPdf::23                        0                      
system.physmem.rdQLenPdf::24                        0                      
system.physmem.rdQLenPdf::25                        0                      
system.physmem.rdQLenPdf::26                        0                      
system.physmem.rdQLenPdf::27                        0                      
system.physmem.rdQLenPdf::28                        0                      
system.physmem.rdQLenPdf::29                        0                      
system.physmem.rdQLenPdf::30                        0                      
system.physmem.rdQLenPdf::31                        0                      
system.physmem.wrQLenPdf::0                         0                      
system.physmem.wrQLenPdf::1                         0                      
system.physmem.wrQLenPdf::2                         0                      
system.physmem.wrQLenPdf::3                         0                      
system.physmem.wrQLenPdf::4                         0                      
system.physmem.wrQLenPdf::5                         0                      
system.physmem.wrQLenPdf::6                         0                      
system.physmem.wrQLenPdf::7                         0                      
system.physmem.wrQLenPdf::8                         0                      
system.physmem.wrQLenPdf::9                         0                      
system.physmem.wrQLenPdf::10                        0                      
system.physmem.wrQLenPdf::11                        0                      
system.physmem.wrQLenPdf::12                        0                      
system.physmem.wrQLenPdf::13                        0                      
system.physmem.wrQLenPdf::14                        0                      
system.physmem.wrQLenPdf::15                        0                      
system.physmem.wrQLenPdf::16                        0                      
system.physmem.wrQLenPdf::17                        0                      
system.physmem.wrQLenPdf::18                        0                      
system.physmem.wrQLenPdf::19                        0                      
system.physmem.wrQLenPdf::20                        0                      
system.physmem.wrQLenPdf::21                        0                      
system.physmem.wrQLenPdf::22                        0                      
system.physmem.wrQLenPdf::23                        0                      
system.physmem.wrQLenPdf::24                        0                      
system.physmem.wrQLenPdf::25                        0                      
system.physmem.wrQLenPdf::26                        0                      
system.physmem.wrQLenPdf::27                        0                      
system.physmem.wrQLenPdf::28                        0                      
system.physmem.wrQLenPdf::29                        0                      
system.physmem.wrQLenPdf::30                        0                      
system.physmem.wrQLenPdf::31                        0                      
system.physmem.wrQLenPdf::32                        0                      
system.physmem.wrQLenPdf::33                        0                      
system.physmem.wrQLenPdf::34                        0                      
system.physmem.wrQLenPdf::35                        0                      
system.physmem.wrQLenPdf::36                        0                      
system.physmem.wrQLenPdf::37                        0                      
system.physmem.wrQLenPdf::38                        0                      
system.physmem.wrQLenPdf::39                        0                      
system.physmem.wrQLenPdf::40                        0                      
system.physmem.wrQLenPdf::41                        0                      
system.physmem.wrQLenPdf::42                        0                      
system.physmem.wrQLenPdf::43                        0                      
system.physmem.wrQLenPdf::44                        0                      
system.physmem.wrQLenPdf::45                        0                      
system.physmem.wrQLenPdf::46                        0                      
system.physmem.wrQLenPdf::47                        0                      
system.physmem.wrQLenPdf::48                        0                      
system.physmem.wrQLenPdf::49                        0                      
system.physmem.wrQLenPdf::50                        0                      
system.physmem.wrQLenPdf::51                        0                      
system.physmem.wrQLenPdf::52                        0                      
system.physmem.wrQLenPdf::53                        0                      
system.physmem.wrQLenPdf::54                        0                      
system.physmem.wrQLenPdf::55                        0                      
system.physmem.wrQLenPdf::56                        0                      
system.physmem.wrQLenPdf::57                        0                      
system.physmem.wrQLenPdf::58                        0                      
system.physmem.wrQLenPdf::59                        0                      
system.physmem.wrQLenPdf::60                        0                      
system.physmem.wrQLenPdf::61                        0                      
system.physmem.wrQLenPdf::62                        0                      
system.physmem.wrQLenPdf::63                        0                      
system.physmem.bytesPerActivate::samples          378                      
system.physmem.bytesPerActivate::mean      305.777777                      
system.physmem.bytesPerActivate::gmean     216.127107                      
system.physmem.bytesPerActivate::stdev     255.900953                      
system.physmem.bytesPerActivate::0-127             81     21.42%     21.42%
system.physmem.bytesPerActivate::128-255          109     28.83%     50.26%
system.physmem.bytesPerActivate::256-383           61     16.13%     66.40%
system.physmem.bytesPerActivate::384-511           56     14.81%     81.21%
system.physmem.bytesPerActivate::512-639           25      6.61%     87.83%
system.physmem.bytesPerActivate::640-767           14      3.70%     91.53%
system.physmem.bytesPerActivate::768-895            9      2.38%     93.91%
system.physmem.bytesPerActivate::896-1023            8      2.11%     96.03%
system.physmem.bytesPerActivate::1024-1151           15      3.96%     99.99%
system.physmem.bytesPerActivate::total            378                      
system.physmem.totQLat                       23863250                      
system.physmem.totMemAccLat                  58100750                      
system.physmem.totBusLat                      9130000                      
system.physmem.avgQLat                       13068.59                      
system.physmem.avgBusLat                      5000.00                      
system.physmem.avgMemAccLat                  31818.59                      
system.physmem.avgRdBW                         300.12                      
system.physmem.avgWrBW                           0.00                      
system.physmem.avgRdBWSys                      300.12                      
system.physmem.avgWrBWSys                        0.00                      
system.physmem.peakBW                        12800.00                      
system.physmem.busUtil                           2.34                      
system.physmem.busUtilRead                       2.34                      
system.physmem.busUtilWrite                      0.00                      
system.physmem.avgRdQLen                         1.06                      
system.physmem.avgWrQLen                         0.00                      
system.physmem.readRowHits                       1442                      
system.physmem.writeRowHits                         0                      
system.physmem.readRowHitRate                   78.97                      
system.physmem.writeRowHitRate                    nan                      
system.physmem.avgGap                       213189.48                      
system.physmem.pageHitRate                      78.97                      
system.physmem_0.actEnergy                    1849260                      
system.physmem_0.preEnergy                     982905                      
system.physmem_0.readEnergy                   8882160                      
system.physmem_0.writeEnergy                        0                      
system.physmem_0.refreshEnergy           30732000.000000                      
system.physmem_0.actBackEnergy               21682230                      
system.physmem_0.preBackEnergy                 640320                      
system.physmem_0.actPowerDownEnergy         150759870                      
system.physmem_0.prePowerDownEnergy           3743520                      
system.physmem_0.selfRefreshEnergy                  0                      
system.physmem_0.totalEnergy                219272265                      
system.physmem_0.averagePower              563.131088                      
system.physmem_0.totalIdleTime              340385750                      
system.physmem_0.memoryStateTime::IDLE         300000                      
system.physmem_0.memoryStateTime::REF        12788250                      
system.physmem_0.memoryStateTime::SREF              0                      
system.physmem_0.memoryStateTime::PRE_PDN      9743250                      
system.physmem_0.memoryStateTime::ACT        35906500                      
system.physmem_0.memoryStateTime::ACT_PDN    330642500                      
system.physmem_1.actEnergy                     892500                      
system.physmem_1.preEnergy                     451605                      
system.physmem_1.readEnergy                   4155480                      
system.physmem_1.writeEnergy                        0                      
system.physmem_1.refreshEnergy           12907440.000000                      
system.physmem_1.actBackEnergy                9756120                      
system.physmem_1.preBackEnergy                 500160                      
system.physmem_1.actPowerDownEnergy          51210510                      
system.physmem_1.prePowerDownEnergy          10448640                      
system.physmem_1.selfRefreshEnergy           55073040                      
system.physmem_1.totalEnergy                145395495                      
system.physmem_1.averagePower              373.402096                      
system.physmem_1.totalIdleTime              366650750                      
system.physmem_1.memoryStateTime::IDLE         675000                      
system.physmem_1.memoryStateTime::REF         5466000                      
system.physmem_1.memoryStateTime::SREF      227169500                      
system.physmem_1.memoryStateTime::PRE_PDN     27206250                      
system.physmem_1.memoryStateTime::ACT        16542750                      
system.physmem_1.memoryStateTime::ACT_PDN    112321000                      
system.pwrStateResidencyTicks::UNDEFINED    389380500                      
system.cpu.branchPred.lookups                  107243                      
system.cpu.branchPred.condPredicted             75500                      
system.cpu.branchPred.condIncorrect              7538                      
system.cpu.branchPred.BTBLookups                66507                      
system.cpu.branchPred.BTBHits                   34696                      
system.cpu.branchPred.BTBCorrect                    0                      
system.cpu.branchPred.BTBHitPct             52.168944                      
system.cpu.branchPred.usedRAS                       0                      
system.cpu.branchPred.RASInCorrect                  0                      
system.cpu.branchPred.indirectLookups           21767                      
system.cpu.branchPred.indirectHits              13301                      
system.cpu.branchPred.indirectMisses             8466                      
system.cpu.branchPredindirectMispredicted         4427                      
system.cpu_clk_domain.clock                       500                      
system.cpu.dtb.read_hits                            0                      
system.cpu.dtb.read_misses                          0                      
system.cpu.dtb.read_accesses                        0                      
system.cpu.dtb.write_hits                           0                      
system.cpu.dtb.write_misses                         0                      
system.cpu.dtb.write_accesses                       0                      
system.cpu.dtb.hits                                 0                      
system.cpu.dtb.misses                               0                      
system.cpu.dtb.accesses                             0                      
system.cpu.itb.read_hits                            0                      
system.cpu.itb.read_misses                          0                      
system.cpu.itb.read_accesses                        0                      
system.cpu.itb.write_hits                           0                      
system.cpu.itb.write_misses                         0                      
system.cpu.itb.write_accesses                       0                      
system.cpu.itb.hits                                 0                      
system.cpu.itb.misses                               0                      
system.cpu.itb.accesses                             0                      
system.cpu.workload.numSyscalls                   216                      
system.cpu.pwrStateResidencyTicks::ON       389380500                      
system.cpu.numCycles                           778761                      
system.cpu.numWorkItemsStarted                      0                      
system.cpu.numWorkItemsCompleted                    0                      
system.cpu.committedInsts                      393610                      
system.cpu.committedOps                        394815                      
system.cpu.discardedOps                         20020                      
system.cpu.numFetchSuspends                         0                      
system.cpu.cpi                               1.978509                      
system.cpu.ipc                               0.505431                      
system.cpu.op_class_0::No_OpClass                 236      0.05%      0.05%
system.cpu.op_class_0::IntAlu                  233005     59.01%     59.07%
system.cpu.op_class_0::IntMult                    626      0.15%     59.23%
system.cpu.op_class_0::IntDiv                       4      0.00%     59.23%
system.cpu.op_class_0::FloatAdd                    11      0.00%     59.23%
system.cpu.op_class_0::FloatCmp                   161      0.04%     59.27%
system.cpu.op_class_0::FloatCvt                   109      0.02%     59.30%
system.cpu.op_class_0::FloatMult                    8      0.00%     59.30%
system.cpu.op_class_0::FloatMultAcc                22      0.00%     59.31%
system.cpu.op_class_0::FloatDiv                    11      0.00%     59.31%
system.cpu.op_class_0::FloatMisc                  117      0.02%     59.34%
system.cpu.op_class_0::FloatSqrt                    5      0.00%     59.34%
system.cpu.op_class_0::SimdAdd                      0      0.00%     59.34%
system.cpu.op_class_0::SimdAddAcc                   0      0.00%     59.34%
system.cpu.op_class_0::SimdAlu                      0      0.00%     59.34%
system.cpu.op_class_0::SimdCmp                      0      0.00%     59.34%
system.cpu.op_class_0::SimdCvt                      0      0.00%     59.34%
system.cpu.op_class_0::SimdMisc                     0      0.00%     59.34%
system.cpu.op_class_0::SimdMult                     0      0.00%     59.34%
system.cpu.op_class_0::SimdMultAcc                  0      0.00%     59.34%
system.cpu.op_class_0::SimdShift                    0      0.00%     59.34%
system.cpu.op_class_0::SimdShiftAcc                 0      0.00%     59.34%
system.cpu.op_class_0::SimdSqrt                     0      0.00%     59.34%
system.cpu.op_class_0::SimdFloatAdd                 0      0.00%     59.34%
system.cpu.op_class_0::SimdFloatAlu                 0      0.00%     59.34%
system.cpu.op_class_0::SimdFloatCmp                 0      0.00%     59.34%
system.cpu.op_class_0::SimdFloatCvt                 0      0.00%     59.34%
system.cpu.op_class_0::SimdFloatDiv                 0      0.00%     59.34%
system.cpu.op_class_0::SimdFloatMisc                0      0.00%     59.34%
system.cpu.op_class_0::SimdFloatMult                0      0.00%     59.34%
system.cpu.op_class_0::SimdFloatMultAcc             0      0.00%     59.34%
system.cpu.op_class_0::SimdFloatSqrt                0      0.00%     59.34%
system.cpu.op_class_0::MemRead                  99353     25.16%     84.51%
system.cpu.op_class_0::MemWrite                 60428     15.30%     99.81%
system.cpu.op_class_0::FloatMemRead               547      0.13%     99.95%
system.cpu.op_class_0::FloatMemWrite              172      0.04%     99.99%
system.cpu.op_class_0::IprAccess                    0      0.00%     99.99%
system.cpu.op_class_0::InstPrefetch                 0      0.00%     99.99%
system.cpu.op_class_0::total                   394815                      
system.cpu.tickCycles                          517132                      
system.cpu.idleCycles                          261629                      
system.cpu.fetch2.int_instructions             290938                      
system.cpu.fetch2.fp_instructions                1172                      
system.cpu.fetch2.vec_instructions                  0                      
system.cpu.fetch2.load_instructions            117540                      
system.cpu.fetch2.store_instructions            70345                      
system.cpu.dcache.tags.pwrStateResidencyTicks::UNDEFINED    389380500                      
system.cpu.dcache.tags.replacements                 2                      
system.cpu.dcache.tags.tagsinuse           406.788289                      
system.cpu.dcache.tags.total_refs              163280                      
system.cpu.dcache.tags.sampled_refs               533                      
system.cpu.dcache.tags.avg_refs            306.341463                      
system.cpu.dcache.tags.warmup_cycle            194500                      
system.cpu.dcache.tags.occ_blocks::cpu.data   406.788289                      
system.cpu.dcache.tags.occ_percent::cpu.data     0.099313                      
system.cpu.dcache.tags.occ_percent::total     0.099313                      
system.cpu.dcache.tags.occ_task_id_blocks::1024          531                      
system.cpu.dcache.tags.age_task_id_blocks_1024::0           15                      
system.cpu.dcache.tags.age_task_id_blocks_1024::1           27                      
system.cpu.dcache.tags.age_task_id_blocks_1024::2          489                      
system.cpu.dcache.tags.occ_task_id_percent::1024     0.129638                      
system.cpu.dcache.tags.tag_accesses            328481                      
system.cpu.dcache.tags.data_accesses           328481                      
system.cpu.dcache.pwrStateResidencyTicks::UNDEFINED    389380500                      
system.cpu.dcache.ReadReq_hits::cpu.data       101423                      
system.cpu.dcache.ReadReq_hits::total          101423                      
system.cpu.dcache.WriteReq_hits::cpu.data        58573                      
system.cpu.dcache.WriteReq_hits::total          58573                      
system.cpu.dcache.LoadLockedReq_hits::cpu.data         1641                      
system.cpu.dcache.LoadLockedReq_hits::total         1641                      
system.cpu.dcache.StoreCondReq_hits::cpu.data         1643                      
system.cpu.dcache.StoreCondReq_hits::total         1643                      
system.cpu.dcache.demand_hits::cpu.data        159996                      
system.cpu.dcache.demand_hits::total           159996                      
system.cpu.dcache.overall_hits::cpu.data       159996                      
system.cpu.dcache.overall_hits::total          159996                      
system.cpu.dcache.ReadReq_misses::cpu.data          308                      
system.cpu.dcache.ReadReq_misses::total           308                      
system.cpu.dcache.WriteReq_misses::cpu.data          384                      
system.cpu.dcache.WriteReq_misses::total          384                      
system.cpu.dcache.LoadLockedReq_misses::cpu.data            2                      
system.cpu.dcache.LoadLockedReq_misses::total            2                      
system.cpu.dcache.demand_misses::cpu.data          692                      
system.cpu.dcache.demand_misses::total            692                      
system.cpu.dcache.overall_misses::cpu.data          692                      
system.cpu.dcache.overall_misses::total           692                      
system.cpu.dcache.ReadReq_miss_latency::cpu.data     26997000                      
system.cpu.dcache.ReadReq_miss_latency::total     26997000                      
system.cpu.dcache.WriteReq_miss_latency::cpu.data     30987500                      
system.cpu.dcache.WriteReq_miss_latency::total     30987500                      
system.cpu.dcache.LoadLockedReq_miss_latency::cpu.data       198500                      
system.cpu.dcache.LoadLockedReq_miss_latency::total       198500                      
system.cpu.dcache.demand_miss_latency::cpu.data     57984500                      
system.cpu.dcache.demand_miss_latency::total     57984500                      
system.cpu.dcache.overall_miss_latency::cpu.data     57984500                      
system.cpu.dcache.overall_miss_latency::total     57984500                      
system.cpu.dcache.ReadReq_accesses::cpu.data       101731                      
system.cpu.dcache.ReadReq_accesses::total       101731                      
system.cpu.dcache.WriteReq_accesses::cpu.data        58957                      
system.cpu.dcache.WriteReq_accesses::total        58957                      
system.cpu.dcache.LoadLockedReq_accesses::cpu.data         1643                      
system.cpu.dcache.LoadLockedReq_accesses::total         1643                      
system.cpu.dcache.StoreCondReq_accesses::cpu.data         1643                      
system.cpu.dcache.StoreCondReq_accesses::total         1643                      
system.cpu.dcache.demand_accesses::cpu.data       160688                      
system.cpu.dcache.demand_accesses::total       160688                      
system.cpu.dcache.overall_accesses::cpu.data       160688                      
system.cpu.dcache.overall_accesses::total       160688                      
system.cpu.dcache.ReadReq_miss_rate::cpu.data     0.003027                      
system.cpu.dcache.ReadReq_miss_rate::total     0.003027                      
system.cpu.dcache.WriteReq_miss_rate::cpu.data     0.006513                      
system.cpu.dcache.WriteReq_miss_rate::total     0.006513                      
system.cpu.dcache.LoadLockedReq_miss_rate::cpu.data     0.001217                      
system.cpu.dcache.LoadLockedReq_miss_rate::total     0.001217                      
system.cpu.dcache.demand_miss_rate::cpu.data     0.004306                      
system.cpu.dcache.demand_miss_rate::total     0.004306                      
system.cpu.dcache.overall_miss_rate::cpu.data     0.004306                      
system.cpu.dcache.overall_miss_rate::total     0.004306                      
system.cpu.dcache.ReadReq_avg_miss_latency::cpu.data 87652.597402                      
system.cpu.dcache.ReadReq_avg_miss_latency::total 87652.597402                      
system.cpu.dcache.WriteReq_avg_miss_latency::cpu.data 80696.614583                      
system.cpu.dcache.WriteReq_avg_miss_latency::total 80696.614583                      
system.cpu.dcache.LoadLockedReq_avg_miss_latency::cpu.data        99250                      
system.cpu.dcache.LoadLockedReq_avg_miss_latency::total        99250                      
system.cpu.dcache.demand_avg_miss_latency::cpu.data 83792.630057                      
system.cpu.dcache.demand_avg_miss_latency::total 83792.630057                      
system.cpu.dcache.overall_avg_miss_latency::cpu.data 83792.630057                      
system.cpu.dcache.overall_avg_miss_latency::total 83792.630057                      
system.cpu.dcache.blocked_cycles::no_mshrs            0                      
system.cpu.dcache.blocked_cycles::no_targets            0                      
system.cpu.dcache.blocked::no_mshrs                 0                      
system.cpu.dcache.blocked::no_targets               0                      
system.cpu.dcache.avg_blocked_cycles::no_mshrs          nan                      
system.cpu.dcache.avg_blocked_cycles::no_targets          nan                      
system.cpu.dcache.writebacks::writebacks            2                      
system.cpu.dcache.writebacks::total                 2                      
system.cpu.dcache.ReadReq_mshr_hits::cpu.data            3                      
system.cpu.dcache.ReadReq_mshr_hits::total            3                      
system.cpu.dcache.WriteReq_mshr_hits::cpu.data          158                      
system.cpu.dcache.WriteReq_mshr_hits::total          158                      
system.cpu.dcache.demand_mshr_hits::cpu.data          161                      
system.cpu.dcache.demand_mshr_hits::total          161                      
system.cpu.dcache.overall_mshr_hits::cpu.data          161                      
system.cpu.dcache.overall_mshr_hits::total          161                      
system.cpu.dcache.ReadReq_mshr_misses::cpu.data          305                      
system.cpu.dcache.ReadReq_mshr_misses::total          305                      
system.cpu.dcache.WriteReq_mshr_misses::cpu.data          226                      
system.cpu.dcache.WriteReq_mshr_misses::total          226                      
system.cpu.dcache.LoadLockedReq_mshr_misses::cpu.data            2                      
system.cpu.dcache.LoadLockedReq_mshr_misses::total            2                      
system.cpu.dcache.demand_mshr_misses::cpu.data          531                      
system.cpu.dcache.demand_mshr_misses::total          531                      
system.cpu.dcache.overall_mshr_misses::cpu.data          531                      
system.cpu.dcache.overall_mshr_misses::total          531                      
system.cpu.dcache.ReadReq_mshr_miss_latency::cpu.data     26458000                      
system.cpu.dcache.ReadReq_mshr_miss_latency::total     26458000                      
system.cpu.dcache.WriteReq_mshr_miss_latency::cpu.data     18795500                      
system.cpu.dcache.WriteReq_mshr_miss_latency::total     18795500                      
system.cpu.dcache.LoadLockedReq_mshr_miss_latency::cpu.data       196500                      
system.cpu.dcache.LoadLockedReq_mshr_miss_latency::total       196500                      
system.cpu.dcache.demand_mshr_miss_latency::cpu.data     45253500                      
system.cpu.dcache.demand_mshr_miss_latency::total     45253500                      
system.cpu.dcache.overall_mshr_miss_latency::cpu.data     45253500                      
system.cpu.dcache.overall_mshr_miss_latency::total     45253500                      
system.cpu.dcache.ReadReq_mshr_miss_rate::cpu.data     0.002998                      
system.cpu.dcache.ReadReq_mshr_miss_rate::total     0.002998                      
system.cpu.dcache.WriteReq_mshr_miss_rate::cpu.data     0.003833                      
system.cpu.dcache.WriteReq_mshr_miss_rate::total     0.003833                      
system.cpu.dcache.LoadLockedReq_mshr_miss_rate::cpu.data     0.001217                      
system.cpu.dcache.LoadLockedReq_mshr_miss_rate::total     0.001217                      
system.cpu.dcache.demand_mshr_miss_rate::cpu.data     0.003304                      
system.cpu.dcache.demand_mshr_miss_rate::total     0.003304                      
system.cpu.dcache.overall_mshr_miss_rate::cpu.data     0.003304                      
system.cpu.dcache.overall_mshr_miss_rate::total     0.003304                      
system.cpu.dcache.ReadReq_avg_mshr_miss_latency::cpu.data 86747.540983                      
system.cpu.dcache.ReadReq_avg_mshr_miss_latency::total 86747.540983                      
system.cpu.dcache.WriteReq_avg_mshr_miss_latency::cpu.data 83165.929203                      
system.cpu.dcache.WriteReq_avg_mshr_miss_latency::total 83165.929203                      
system.cpu.dcache.LoadLockedReq_avg_mshr_miss_latency::cpu.data        98250                      
system.cpu.dcache.LoadLockedReq_avg_mshr_miss_latency::total        98250                      
system.cpu.dcache.demand_avg_mshr_miss_latency::cpu.data 85223.163841                      
system.cpu.dcache.demand_avg_mshr_miss_latency::total 85223.163841                      
system.cpu.dcache.overall_avg_mshr_miss_latency::cpu.data 85223.163841                      
system.cpu.dcache.overall_avg_mshr_miss_latency::total 85223.163841                      
system.cpu.icache.tags.pwrStateResidencyTicks::UNDEFINED    389380500                      
system.cpu.icache.tags.replacements               118                      
system.cpu.icache.tags.tagsinuse           792.177339                      
system.cpu.icache.tags.total_refs              143487                      
system.cpu.icache.tags.sampled_refs              1301                      
system.cpu.icache.tags.avg_refs            110.289777                      
system.cpu.icache.tags.warmup_cycle             87500                      
system.cpu.icache.tags.occ_blocks::cpu.inst   792.177339                      
system.cpu.icache.tags.occ_percent::cpu.inst     0.386805                      
system.cpu.icache.tags.occ_percent::total     0.386805                      
system.cpu.icache.tags.occ_task_id_blocks::1024         1183                      
system.cpu.icache.tags.age_task_id_blocks_1024::0           51                      
system.cpu.icache.tags.age_task_id_blocks_1024::1          139                      
system.cpu.icache.tags.age_task_id_blocks_1024::2          993                      
system.cpu.icache.tags.occ_task_id_percent::1024     0.577636                      
system.cpu.icache.tags.tag_accesses            290879                      
system.cpu.icache.tags.data_accesses           290879                      
system.cpu.icache.pwrStateResidencyTicks::UNDEFINED    389380500                      
system.cpu.icache.ReadReq_hits::cpu.inst       143487                      
system.cpu.icache.ReadReq_hits::total          143487                      
system.cpu.icache.demand_hits::cpu.inst        143487                      
system.cpu.icache.demand_hits::total           143487                      
system.cpu.icache.overall_hits::cpu.inst       143487                      
system.cpu.icache.overall_hits::total          143487                      
system.cpu.icache.ReadReq_misses::cpu.inst         1302                      
system.cpu.icache.ReadReq_misses::total          1302                      
system.cpu.icache.demand_misses::cpu.inst         1302                      
system.cpu.icache.demand_misses::total           1302                      
system.cpu.icache.overall_misses::cpu.inst         1302                      
system.cpu.icache.overall_misses::total          1302                      
system.cpu.icache.ReadReq_miss_latency::cpu.inst    109940000                      
system.cpu.icache.ReadReq_miss_latency::total    109940000                      
system.cpu.icache.demand_miss_latency::cpu.inst    109940000                      
system.cpu.icache.demand_miss_latency::total    109940000                      
system.cpu.icache.overall_miss_latency::cpu.inst    109940000                      
system.cpu.icache.overall_miss_latency::total    109940000                      
system.cpu.icache.ReadReq_accesses::cpu.inst       144789                      
system.cpu.icache.ReadReq_accesses::total       144789                      
system.cpu.icache.demand_accesses::cpu.inst       144789                      
system.cpu.icache.demand_accesses::total       144789                      
system.cpu.icache.overall_accesses::cpu.inst       144789                      
system.cpu.icache.overall_accesses::total       144789                      
system.cpu.icache.ReadReq_miss_rate::cpu.inst     0.008992                      
system.cpu.icache.ReadReq_miss_rate::total     0.008992                      
system.cpu.icache.demand_miss_rate::cpu.inst     0.008992                      
system.cpu.icache.demand_miss_rate::total     0.008992                      
system.cpu.icache.overall_miss_rate::cpu.inst     0.008992                      
system.cpu.icache.overall_miss_rate::total     0.008992                      
system.cpu.icache.ReadReq_avg_miss_latency::cpu.inst 84439.324116                      
system.cpu.icache.ReadReq_avg_miss_latency::total 84439.324116                      
system.cpu.icache.demand_avg_miss_latency::cpu.inst 84439.324116                      
system.cpu.icache.demand_avg_miss_latency::total 84439.324116                      
system.cpu.icache.overall_avg_miss_latency::cpu.inst 84439.324116                      
system.cpu.icache.overall_avg_miss_latency::total 84439.324116                      
system.cpu.icache.blocked_cycles::no_mshrs            0                      
system.cpu.icache.blocked_cycles::no_targets            0                      
system.cpu.icache.blocked::no_mshrs                 0                      
system.cpu.icache.blocked::no_targets               0                      
system.cpu.icache.avg_blocked_cycles::no_mshrs          nan                      
system.cpu.icache.avg_blocked_cycles::no_targets          nan                      
system.cpu.icache.writebacks::writebacks          118                      
system.cpu.icache.writebacks::total               118                      
system.cpu.icache.ReadReq_mshr_misses::cpu.inst         1302                      
system.cpu.icache.ReadReq_mshr_misses::total         1302                      
system.cpu.icache.demand_mshr_misses::cpu.inst         1302                      
system.cpu.icache.demand_mshr_misses::total         1302                      
system.cpu.icache.overall_mshr_misses::cpu.inst         1302                      
system.cpu.icache.overall_mshr_misses::total         1302                      
system.cpu.icache.ReadReq_mshr_miss_latency::cpu.inst    108639000                      
system.cpu.icache.ReadReq_mshr_miss_latency::total    108639000                      
system.cpu.icache.demand_mshr_miss_latency::cpu.inst    108639000                      
system.cpu.icache.demand_mshr_miss_latency::total    108639000                      
system.cpu.icache.overall_mshr_miss_latency::cpu.inst    108639000                      
system.cpu.icache.overall_mshr_miss_latency::total    108639000                      
system.cpu.icache.ReadReq_mshr_miss_rate::cpu.inst     0.008992                      
system.cpu.icache.ReadReq_mshr_miss_rate::total     0.008992                      
system.cpu.icache.demand_mshr_miss_rate::cpu.inst     0.008992                      
system.cpu.icache.demand_mshr_miss_rate::total     0.008992                      
system.cpu.icache.overall_mshr_miss_rate::cpu.inst     0.008992                      
system.cpu.icache.overall_mshr_miss_rate::total     0.008992                      
system.cpu.icache.ReadReq_avg_mshr_miss_latency::cpu.inst 83440.092165                      
system.cpu.icache.ReadReq_avg_mshr_miss_latency::total 83440.092165                      
system.cpu.icache.demand_avg_mshr_miss_latency::cpu.inst 83440.092165                      
system.cpu.icache.demand_avg_mshr_miss_latency::total 83440.092165                      
system.cpu.icache.overall_avg_mshr_miss_latency::cpu.inst 83440.092165                      
system.cpu.icache.overall_avg_mshr_miss_latency::total 83440.092165                      
system.cpu.l2cache.tags.pwrStateResidencyTicks::UNDEFINED    389380500                      
system.cpu.l2cache.tags.replacements                0                      
system.cpu.l2cache.tags.tagsinuse         1250.293146                      
system.cpu.l2cache.tags.total_refs                128                      
system.cpu.l2cache.tags.sampled_refs             1826                      
system.cpu.l2cache.tags.avg_refs             0.070098                      
system.cpu.l2cache.tags.warmup_cycle            77000                      
system.cpu.l2cache.tags.occ_blocks::cpu.inst   843.853373                      
system.cpu.l2cache.tags.occ_blocks::cpu.data   406.439773                      
system.cpu.l2cache.tags.occ_percent::cpu.inst     0.025752                      
system.cpu.l2cache.tags.occ_percent::cpu.data     0.012403                      
system.cpu.l2cache.tags.occ_percent::total     0.038155                      
system.cpu.l2cache.tags.occ_task_id_blocks::1024         1826                      
system.cpu.l2cache.tags.age_task_id_blocks_1024::0           65                      
system.cpu.l2cache.tags.age_task_id_blocks_1024::1          166                      
system.cpu.l2cache.tags.age_task_id_blocks_1024::2         1595                      
system.cpu.l2cache.tags.occ_task_id_percent::1024     0.055725                      
system.cpu.l2cache.tags.tag_accesses            17466                      
system.cpu.l2cache.tags.data_accesses           17466                      
system.cpu.l2cache.pwrStateResidencyTicks::UNDEFINED    389380500                      
system.cpu.l2cache.WritebackDirty_hits::writebacks            2                      
system.cpu.l2cache.WritebackDirty_hits::total            2                      
system.cpu.l2cache.WritebackClean_hits::writebacks          118                      
system.cpu.l2cache.WritebackClean_hits::total          118                      
system.cpu.l2cache.ReadCleanReq_hits::cpu.inst            7                      
system.cpu.l2cache.ReadCleanReq_hits::total            7                      
system.cpu.l2cache.ReadSharedReq_hits::cpu.data            1                      
system.cpu.l2cache.ReadSharedReq_hits::total            1                      
system.cpu.l2cache.demand_hits::cpu.inst            7                      
system.cpu.l2cache.demand_hits::cpu.data            1                      
system.cpu.l2cache.demand_hits::total               8                      
system.cpu.l2cache.overall_hits::cpu.inst            7                      
system.cpu.l2cache.overall_hits::cpu.data            1                      
system.cpu.l2cache.overall_hits::total              8                      
system.cpu.l2cache.ReadExReq_misses::cpu.data          226                      
system.cpu.l2cache.ReadExReq_misses::total          226                      
system.cpu.l2cache.ReadCleanReq_misses::cpu.inst         1295                      
system.cpu.l2cache.ReadCleanReq_misses::total         1295                      
system.cpu.l2cache.ReadSharedReq_misses::cpu.data          306                      
system.cpu.l2cache.ReadSharedReq_misses::total          306                      
system.cpu.l2cache.demand_misses::cpu.inst         1295                      
system.cpu.l2cache.demand_misses::cpu.data          532                      
system.cpu.l2cache.demand_misses::total          1827                      
system.cpu.l2cache.overall_misses::cpu.inst         1295                      
system.cpu.l2cache.overall_misses::cpu.data          532                      
system.cpu.l2cache.overall_misses::total         1827                      
system.cpu.l2cache.ReadExReq_miss_latency::cpu.data     18456000                      
system.cpu.l2cache.ReadExReq_miss_latency::total     18456000                      
system.cpu.l2cache.ReadCleanReq_miss_latency::cpu.inst    106614000                      
system.cpu.l2cache.ReadCleanReq_miss_latency::total    106614000                      
system.cpu.l2cache.ReadSharedReq_miss_latency::cpu.data     26180500                      
system.cpu.l2cache.ReadSharedReq_miss_latency::total     26180500                      
system.cpu.l2cache.demand_miss_latency::cpu.inst    106614000                      
system.cpu.l2cache.demand_miss_latency::cpu.data     44636500                      
system.cpu.l2cache.demand_miss_latency::total    151250500                      
system.cpu.l2cache.overall_miss_latency::cpu.inst    106614000                      
system.cpu.l2cache.overall_miss_latency::cpu.data     44636500                      
system.cpu.l2cache.overall_miss_latency::total    151250500                      
system.cpu.l2cache.WritebackDirty_accesses::writebacks            2                      
system.cpu.l2cache.WritebackDirty_accesses::total            2                      
system.cpu.l2cache.WritebackClean_accesses::writebacks          118                      
system.cpu.l2cache.WritebackClean_accesses::total          118                      
system.cpu.l2cache.ReadExReq_accesses::cpu.data          226                      
system.cpu.l2cache.ReadExReq_accesses::total          226                      
system.cpu.l2cache.ReadCleanReq_accesses::cpu.inst         1302                      
system.cpu.l2cache.ReadCleanReq_accesses::total         1302                      
system.cpu.l2cache.ReadSharedReq_accesses::cpu.data          307                      
system.cpu.l2cache.ReadSharedReq_accesses::total          307                      
system.cpu.l2cache.demand_accesses::cpu.inst         1302                      
system.cpu.l2cache.demand_accesses::cpu.data          533                      
system.cpu.l2cache.demand_accesses::total         1835                      
system.cpu.l2cache.overall_accesses::cpu.inst         1302                      
system.cpu.l2cache.overall_accesses::cpu.data          533                      
system.cpu.l2cache.overall_accesses::total         1835                      
system.cpu.l2cache.ReadExReq_miss_rate::cpu.data            1                      
system.cpu.l2cache.ReadExReq_miss_rate::total            1                      
system.cpu.l2cache.ReadCleanReq_miss_rate::cpu.inst     0.994623                      
system.cpu.l2cache.ReadCleanReq_miss_rate::total     0.994623                      
system.cpu.l2cache.ReadSharedReq_miss_rate::cpu.data     0.996742                      
system.cpu.l2cache.ReadSharedReq_miss_rate::total     0.996742                      
system.cpu.l2cache.demand_miss_rate::cpu.inst     0.994623                      
system.cpu.l2cache.demand_miss_rate::cpu.data     0.998123                      
system.cpu.l2cache.demand_miss_rate::total     0.995640                      
system.cpu.l2cache.overall_miss_rate::cpu.inst     0.994623                      
system.cpu.l2cache.overall_miss_rate::cpu.data     0.998123                      
system.cpu.l2cache.overall_miss_rate::total     0.995640                      
system.cpu.l2cache.ReadExReq_avg_miss_latency::cpu.data 81663.716814                      
system.cpu.l2cache.ReadExReq_avg_miss_latency::total 81663.716814                      
system.cpu.l2cache.ReadCleanReq_avg_miss_latency::cpu.inst 82327.413127                      
system.cpu.l2cache.ReadCleanReq_avg_miss_latency::total 82327.413127                      
system.cpu.l2cache.ReadSharedReq_avg_miss_latency::cpu.data 85557.189542                      
system.cpu.l2cache.ReadSharedReq_avg_miss_latency::total 85557.189542                      
system.cpu.l2cache.demand_avg_miss_latency::cpu.inst 82327.413127                      
system.cpu.l2cache.demand_avg_miss_latency::cpu.data 83903.195488                      
system.cpu.l2cache.demand_avg_miss_latency::total 82786.261631                      
system.cpu.l2cache.overall_avg_miss_latency::cpu.inst 82327.413127                      
system.cpu.l2cache.overall_avg_miss_latency::cpu.data 83903.195488                      
system.cpu.l2cache.overall_avg_miss_latency::total 82786.261631                      
system.cpu.l2cache.blocked_cycles::no_mshrs            0                      
system.cpu.l2cache.blocked_cycles::no_targets            0                      
system.cpu.l2cache.blocked::no_mshrs                0                      
system.cpu.l2cache.blocked::no_targets              0                      
system.cpu.l2cache.avg_blocked_cycles::no_mshrs          nan                      
system.cpu.l2cache.avg_blocked_cycles::no_targets          nan                      
system.cpu.l2cache.ReadExReq_mshr_misses::cpu.data          226                      
system.cpu.l2cache.ReadExReq_mshr_misses::total          226                      
system.cpu.l2cache.ReadCleanReq_mshr_misses::cpu.inst         1295                      
system.cpu.l2cache.ReadCleanReq_mshr_misses::total         1295                      
system.cpu.l2cache.ReadSharedReq_mshr_misses::cpu.data          306                      
system.cpu.l2cache.ReadSharedReq_mshr_misses::total          306                      
system.cpu.l2cache.demand_mshr_misses::cpu.inst         1295                      
system.cpu.l2cache.demand_mshr_misses::cpu.data          532                      
system.cpu.l2cache.demand_mshr_misses::total         1827                      
system.cpu.l2cache.overall_mshr_misses::cpu.inst         1295                      
system.cpu.l2cache.overall_mshr_misses::cpu.data          532                      
system.cpu.l2cache.overall_mshr_misses::total         1827                      
system.cpu.l2cache.ReadExReq_mshr_miss_latency::cpu.data     16196000                      
system.cpu.l2cache.ReadExReq_mshr_miss_latency::total     16196000                      
system.cpu.l2cache.ReadCleanReq_mshr_miss_latency::cpu.inst     93674000                      
system.cpu.l2cache.ReadCleanReq_mshr_miss_latency::total     93674000                      
system.cpu.l2cache.ReadSharedReq_mshr_miss_latency::cpu.data     23120500                      
system.cpu.l2cache.ReadSharedReq_mshr_miss_latency::total     23120500                      
system.cpu.l2cache.demand_mshr_miss_latency::cpu.inst     93674000                      
system.cpu.l2cache.demand_mshr_miss_latency::cpu.data     39316500                      
system.cpu.l2cache.demand_mshr_miss_latency::total    132990500                      
system.cpu.l2cache.overall_mshr_miss_latency::cpu.inst     93674000                      
system.cpu.l2cache.overall_mshr_miss_latency::cpu.data     39316500                      
system.cpu.l2cache.overall_mshr_miss_latency::total    132990500                      
system.cpu.l2cache.ReadExReq_mshr_miss_rate::cpu.data            1                      
system.cpu.l2cache.ReadExReq_mshr_miss_rate::total            1                      
system.cpu.l2cache.ReadCleanReq_mshr_miss_rate::cpu.inst     0.994623                      
system.cpu.l2cache.ReadCleanReq_mshr_miss_rate::total     0.994623                      
system.cpu.l2cache.ReadSharedReq_mshr_miss_rate::cpu.data     0.996742                      
system.cpu.l2cache.ReadSharedReq_mshr_miss_rate::total     0.996742                      
system.cpu.l2cache.demand_mshr_miss_rate::cpu.inst     0.994623                      
system.cpu.l2cache.demand_mshr_miss_rate::cpu.data     0.998123                      
system.cpu.l2cache.demand_mshr_miss_rate::total     0.995640                      
system.cpu.l2cache.overall_mshr_miss_rate::cpu.inst     0.994623                      
system.cpu.l2cache.overall_mshr_miss_rate::cpu.data     0.998123                      
system.cpu.l2cache.overall_mshr_miss_rate::total     0.995640                      
system.cpu.l2cache.ReadExReq_avg_mshr_miss_latency::cpu.data 71663.716814                      
system.cpu.l2cache.ReadExReq_avg_mshr_miss_latency::total 71663.716814                      
system.cpu.l2cache.ReadCleanReq_avg_mshr_miss_latency::cpu.inst 72335.135135                      
system.cpu.l2cache.ReadCleanReq_avg_mshr_miss_latency::total 72335.135135                      
system.cpu.l2cache.ReadSharedReq_avg_mshr_miss_latency::cpu.data 75557.189542                      
system.cpu.l2cache.ReadSharedReq_avg_mshr_miss_latency::total 75557.189542                      
system.cpu.l2cache.demand_avg_mshr_miss_latency::cpu.inst 72335.135135                      
system.cpu.l2cache.demand_avg_mshr_miss_latency::cpu.data 73903.195488                      
system.cpu.l2cache.demand_avg_mshr_miss_latency::total 72791.735084                      
system.cpu.l2cache.overall_avg_mshr_miss_latency::cpu.inst 72335.135135                      
system.cpu.l2cache.overall_avg_mshr_miss_latency::cpu.data 73903.195488                      
system.cpu.l2cache.overall_avg_mshr_miss_latency::total 72791.735084                      
system.cpu.toL2Bus.snoop_filter.tot_requests         1955                      
system.cpu.toL2Bus.snoop_filter.hit_single_requests          121                      
system.cpu.toL2Bus.snoop_filter.hit_multi_requests            0                      
system.cpu.toL2Bus.snoop_filter.tot_snoops            0                      
system.cpu.toL2Bus.snoop_filter.hit_single_snoops            0                      
system.cpu.toL2Bus.snoop_filter.hit_multi_snoops            0                      
system.cpu.toL2Bus.pwrStateResidencyTicks::UNDEFINED    389380500                      
system.cpu.toL2Bus.trans_dist::ReadResp          1608                      
system.cpu.toL2Bus.trans_dist::WritebackDirty            2                      
system.cpu.toL2Bus.trans_dist::WritebackClean          118                      
system.cpu.toL2Bus.trans_dist::ReadExReq          226                      
system.cpu.toL2Bus.trans_dist::ReadExResp          226                      
system.cpu.toL2Bus.trans_dist::ReadCleanReq         1302                      
system.cpu.toL2Bus.trans_dist::ReadSharedReq          307                      
system.cpu.toL2Bus.pkt_count_system.cpu.icache.mem_side::system.cpu.l2cache.cpu_side         2721                      
system.cpu.toL2Bus.pkt_count_system.cpu.dcache.mem_side::system.cpu.l2cache.cpu_side         1068                      
system.cpu.toL2Bus.pkt_count::total              3789                      
system.cpu.toL2Bus.pkt_size_system.cpu.icache.mem_side::system.cpu.l2cache.cpu_side        90816                      
system.cpu.toL2Bus.pkt_size_system.cpu.dcache.mem_side::system.cpu.l2cache.cpu_side        34240                      
system.cpu.toL2Bus.pkt_size::total             125056                      
system.cpu.toL2Bus.snoops                           0                      
system.cpu.toL2Bus.snoopTraffic                     0                      
system.cpu.toL2Bus.snoop_fanout::samples         1835                      
system.cpu.toL2Bus.snoop_fanout::mean        0.000544                      
system.cpu.toL2Bus.snoop_fanout::stdev       0.023344                      
system.cpu.toL2Bus.snoop_fanout::underflows            0      0.00%      0.00%
system.cpu.toL2Bus.snoop_fanout::0               1834     99.94%     99.94%
system.cpu.toL2Bus.snoop_fanout::1                  1      0.05%     99.99%
system.cpu.toL2Bus.snoop_fanout::2                  0      0.00%     99.99%
system.cpu.toL2Bus.snoop_fanout::overflows            0      0.00%     99.99%
system.cpu.toL2Bus.snoop_fanout::min_value            0                      
system.cpu.toL2Bus.snoop_fanout::max_value            1                      
system.cpu.toL2Bus.snoop_fanout::total           1835                      
system.cpu.toL2Bus.reqLayer0.occupancy        1097500                      
system.cpu.toL2Bus.reqLayer0.utilization          0.2                      
system.cpu.toL2Bus.respLayer0.occupancy       1951500                      
system.cpu.toL2Bus.respLayer0.utilization          0.5                      
system.cpu.toL2Bus.respLayer1.occupancy        799500                      
system.cpu.toL2Bus.respLayer1.utilization          0.2                      
system.membus.snoop_filter.tot_requests          1826                      
system.membus.snoop_filter.hit_single_requests            0                      
system.membus.snoop_filter.hit_multi_requests            0                      
system.membus.snoop_filter.tot_snoops               0                      
system.membus.snoop_filter.hit_single_snoops            0                      
system.membus.snoop_filter.hit_multi_snoops            0                      
system.membus.pwrStateResidencyTicks::UNDEFINED    389380500                      
system.membus.trans_dist::ReadResp               1600                      
system.membus.trans_dist::ReadExReq               226                      
system.membus.trans_dist::ReadExResp              226                      
system.membus.trans_dist::ReadSharedReq          1600                      
system.membus.pkt_count_system.cpu.l2cache.mem_side::system.physmem.port         3652                      
system.membus.pkt_count::total                   3652                      
system.membus.pkt_size_system.cpu.l2cache.mem_side::system.physmem.port       116864                      
system.membus.pkt_size::total                  116864                      
system.membus.snoops                                0                      
system.membus.snoopTraffic                          0                      
system.membus.snoop_fanout::samples              1826                      
system.membus.snoop_fanout::mean                    0                      
system.membus.snoop_fanout::stdev                  -0                      
system.membus.snoop_fanout::underflows              0      0.00%      0.00%
system.membus.snoop_fanout::0                    1826    100.00%    100.00%
system.membus.snoop_fanout::1                       0      0.00%    100.00%
system.membus.snoop_fanout::overflows               0      0.00%    100.00%
system.membus.snoop_fanout::min_value               0                      
system.membus.snoop_fanout::max_value               0                      
system.membus.snoop_fanout::total                1826                      
system.membus.reqLayer0.occupancy             2138500                      
system.membus.reqLayer0.utilization               0.5                      
system.membus.respLayer1.occupancy            9709000                      
system.membus.respLayer1.utilization              2.4                      

---------- End Simulation Statistics   ----------
