
---------- Begin Simulation Statistics ----------
sim_seconds                                  0.000716                      
sim_ticks                                   716800500                      
final_tick                                  716800500                      
sim_freq                                 1000000000000                      
host_inst_rate                                 307838                      
host_op_rate                                   308776                      
host_tick_rate                              560892650                      
host_mem_usage                                 401316                      
host_seconds                                     1.27                      
sim_insts                                      393394                      
sim_ops                                        394599                      
system.voltage_domain.voltage                       1                      
system.clk_domain.clock                          1000                      
system.physmem.pwrStateResidencyTicks::UNDEFINED    716800500                      
system.physmem.bytes_read::cpu.inst             66176                      
system.physmem.bytes_read::cpu.data             33664                      
system.physmem.bytes_read::total                99840                      
system.physmem.bytes_inst_read::cpu.inst        66176                      
system.physmem.bytes_inst_read::total           66176                      
system.physmem.num_reads::cpu.inst               1034                      
system.physmem.num_reads::cpu.data                526                      
system.physmem.num_reads::total                  1560                      
system.physmem.bw_read::cpu.inst             92321364                      
system.physmem.bw_read::cpu.data             46964252                      
system.physmem.bw_read::total               139285617                      
system.physmem.bw_inst_read::cpu.inst        92321364                      
system.physmem.bw_inst_read::total           92321364                      
system.physmem.bw_total::cpu.inst            92321364                      
system.physmem.bw_total::cpu.data            46964252                      
system.physmem.bw_total::total              139285617                      
system.pwrStateResidencyTicks::UNDEFINED    716800500                      
system.cpu_clk_domain.clock                       500                      
system.cpu.dtb.read_hits                            0                      
system.cpu.dtb.read_misses                          0                      
system.cpu.dtb.read_accesses                        0                      
system.cpu.dtb.write_hits                           0                      
system.cpu.dtb.write_misses                         0                      
system.cpu.dtb.write_accesses                       0                      
system.cpu.dtb.hits                                 0                      
system.cpu.dtb.misses                               0                      
system.cpu.dtb.accesses                             0                      
system.cpu.itb.read_hits                            0                      
system.cpu.itb.read_misses                          0                      
system.cpu.itb.read_accesses                        0                      
system.cpu.itb.write_hits                           0                      
system.cpu.itb.write_misses                         0                      
system.cpu.itb.write_accesses                       0                      
system.cpu.itb.hits                                 0                      
system.cpu.itb.misses                               0                      
system.cpu.itb.accesses                             0                      
system.cpu.workload.numSyscalls                   216                      
system.cpu.pwrStateResidencyTicks::ON       716800500                      
system.cpu.numCycles                          1433601                      
system.cpu.numWorkItemsStarted                      0                      
system.cpu.numWorkItemsCompleted                    0                      
system.cpu.committedInsts                      393394                      
system.cpu.committedOps                        394599                      
system.cpu.num_int_alu_accesses                392588                      
system.cpu.num_fp_alu_accesses                   1163                      
system.cpu.num_vec_alu_accesses                     0                      
system.cpu.num_func_calls                       22164                      
system.cpu.num_conditional_control_insts        63847                      
system.cpu.num_int_insts                       392588                      
system.cpu.num_fp_insts                          1163                      
system.cpu.num_vec_insts                            0                      
system.cpu.num_int_register_reads              495215                      
system.cpu.num_int_register_writes             261461                      
system.cpu.num_fp_register_reads                  936                      
system.cpu.num_fp_register_writes                 756                      
system.cpu.num_vec_register_reads                   0                      
system.cpu.num_vec_register_writes                  0                      
system.cpu.num_mem_refs                        160500                      
system.cpu.num_load_insts                       99900                      
system.cpu.num_store_insts                      60600                      
system.cpu.num_idle_cycles                         -0                      
system.cpu.num_busy_cycles                    1433601                      
system.cpu.not_idle_fraction                        1                      
system.cpu.idle_fraction                           -0                      
system.cpu.Branches                             86011                      
system.cpu.op_class::No_OpClass                   236      0.05%      0.05%
system.cpu.op_class::IntAlu                    233005     59.01%     59.07%
system.cpu.op_class::IntMult                      626      0.15%     59.23%
system.cpu.op_class::IntDiv                         4      0.00%     59.23%
system.cpu.op_class::FloatAdd                      11      0.00%     59.23%
system.cpu.op_class::FloatCmp                     161      0.04%     59.27%
system.cpu.op_class::FloatCvt                     109      0.02%     59.30%
system.cpu.op_class::FloatMult                      8      0.00%     59.30%
system.cpu.op_class::FloatMultAcc                  22      0.00%     59.31%
system.cpu.op_class::FloatDiv                      11      0.00%     59.31%
system.cpu.op_class::FloatMisc                    117      0.02%     59.34%
system.cpu.op_class::FloatSqrt                      5      0.00%     59.34%
system.cpu.op_class::SimdAdd                        0      0.00%     59.34%
system.cpu.op_class::SimdAddAcc                     0      0.00%     59.34%
system.cpu.op_class::SimdAlu                        0      0.00%     59.34%
system.cpu.op_class::SimdCmp                        0      0.00%     59.34%
system.cpu.op_class::SimdCvt                        0      0.00%     59.34%
system.cpu.op_class::SimdMisc                       0      0.00%     59.34%
system.cpu.op_class::SimdMult                       0      0.00%     59.34%
system.cpu.op_class::SimdMultAcc                    0      0.00%     59.34%
system.cpu.op_class::SimdShift                      0      0.00%     59.34%
system.cpu.op_class::SimdShiftAcc                   0      0.00%     59.34%
system.cpu.op_class::SimdSqrt                       0      0.00%     59.34%
system.cpu.op_class::SimdFloatAdd                   0      0.00%     59.34%
system.cpu.op_class::SimdFloatAlu                   0      0.00%     59.34%
system.cpu.op_class::SimdFloatCmp                   0      0.00%     59.34%
system.cpu.op_class::SimdFloatCvt                   0      0.00%     59.34%
system.cpu.op_class::SimdFloatDiv                   0      0.00%     59.34%
system.cpu.op_class::SimdFloatMisc                  0      0.00%     59.34%
system.cpu.op_class::SimdFloatMult                  0      0.00%     59.34%
system.cpu.op_class::SimdFloatMultAcc               0      0.00%     59.34%
system.cpu.op_class::SimdFloatSqrt                  0      0.00%     59.34%
system.cpu.op_class::MemRead                    99353     25.16%     84.51%
system.cpu.op_class::MemWrite                   60428     15.30%     99.81%
system.cpu.op_class::FloatMemRead                 547      0.13%     99.95%
system.cpu.op_class::FloatMemWrite                172      0.04%     99.99%
system.cpu.op_class::IprAccess                      0      0.00%     99.99%
system.cpu.op_class::InstPrefetch                   0      0.00%     99.99%
system.cpu.op_class::total                     394815                      
system.cpu.dcache.tags.pwrStateResidencyTicks::UNDEFINED    716800500                      
system.cpu.dcache.tags.replacements                 2                      
system.cpu.dcache.tags.tagsinuse           431.325629                      
system.cpu.dcache.tags.total_refs              159974                      
system.cpu.dcache.tags.sampled_refs               526                      
system.cpu.dcache.tags.avg_refs            304.133079                      
system.cpu.dcache.tags.warmup_cycle            134500                      
system.cpu.dcache.tags.occ_blocks::cpu.data   431.325629                      
system.cpu.dcache.tags.occ_percent::cpu.data     0.105304                      
system.cpu.dcache.tags.occ_percent::total     0.105304                      
system.cpu.dcache.tags.occ_task_id_blocks::1024          524                      
system.cpu.dcache.tags.age_task_id_blocks_1024::0           15                      
system.cpu.dcache.tags.age_task_id_blocks_1024::1           12                      
system.cpu.dcache.tags.age_task_id_blocks_1024::2          497                      
system.cpu.dcache.tags.occ_task_id_percent::1024     0.127929                      
system.cpu.dcache.tags.tag_accesses            321526                      
system.cpu.dcache.tags.data_accesses           321526                      
system.cpu.dcache.pwrStateResidencyTicks::UNDEFINED    716800500                      
system.cpu.dcache.ReadReq_hits::cpu.data        97960                      
system.cpu.dcache.ReadReq_hits::total           97960                      
system.cpu.dcache.WriteReq_hits::cpu.data        58730                      
system.cpu.dcache.WriteReq_hits::total          58730                      
system.cpu.dcache.LoadLockedReq_hits::cpu.data         1641                      
system.cpu.dcache.LoadLockedReq_hits::total         1641                      
system.cpu.dcache.StoreCondReq_hits::cpu.data         1643                      
system.cpu.dcache.StoreCondReq_hits::total         1643                      
system.cpu.dcache.demand_hits::cpu.data        156690                      
system.cpu.dcache.demand_hits::total           156690                      
system.cpu.dcache.overall_hits::cpu.data       156690                      
system.cpu.dcache.overall_hits::total          156690                      
system.cpu.dcache.ReadReq_misses::cpu.data          297                      
system.cpu.dcache.ReadReq_misses::total           297                      
system.cpu.dcache.WriteReq_misses::cpu.data          227                      
system.cpu.dcache.WriteReq_misses::total          227                      
system.cpu.dcache.LoadLockedReq_misses::cpu.data            2                      
system.cpu.dcache.LoadLockedReq_misses::total            2                      
system.cpu.dcache.demand_misses::cpu.data          524                      
system.cpu.dcache.demand_misses::total            524                      
system.cpu.dcache.overall_misses::cpu.data          524                      
system.cpu.dcache.overall_misses::total           524                      
system.cpu.dcache.ReadReq_miss_latency::cpu.data     18711000                      
system.cpu.dcache.ReadReq_miss_latency::total     18711000                      
system.cpu.dcache.WriteReq_miss_latency::cpu.data     14301000                      
system.cpu.dcache.WriteReq_miss_latency::total     14301000                      
system.cpu.dcache.LoadLockedReq_miss_latency::cpu.data       126000                      
system.cpu.dcache.LoadLockedReq_miss_latency::total       126000                      
system.cpu.dcache.demand_miss_latency::cpu.data     33012000                      
system.cpu.dcache.demand_miss_latency::total     33012000                      
system.cpu.dcache.overall_miss_latency::cpu.data     33012000                      
system.cpu.dcache.overall_miss_latency::total     33012000                      
system.cpu.dcache.ReadReq_accesses::cpu.data        98257                      
system.cpu.dcache.ReadReq_accesses::total        98257                      
system.cpu.dcache.WriteReq_accesses::cpu.data        58957                      
system.cpu.dcache.WriteReq_accesses::total        58957                      
system.cpu.dcache.LoadLockedReq_accesses::cpu.data         1643                      
system.cpu.dcache.LoadLockedReq_accesses::total         1643                      
system.cpu.dcache.StoreCondReq_accesses::cpu.data         1643                      
system.cpu.dcache.StoreCondReq_accesses::total         1643                      
system.cpu.dcache.demand_accesses::cpu.data       157214                      
system.cpu.dcache.demand_accesses::total       157214                      
system.cpu.dcache.overall_accesses::cpu.data       157214                      
system.cpu.dcache.overall_accesses::total       157214                      
system.cpu.dcache.ReadReq_miss_rate::cpu.data     0.003022                      
system.cpu.dcache.ReadReq_miss_rate::total     0.003022                      
system.cpu.dcache.WriteReq_miss_rate::cpu.data     0.003850                      
system.cpu.dcache.WriteReq_miss_rate::total     0.003850                      
system.cpu.dcache.LoadLockedReq_miss_rate::cpu.data     0.001217                      
system.cpu.dcache.LoadLockedReq_miss_rate::total     0.001217                      
system.cpu.dcache.demand_miss_rate::cpu.data     0.003333                      
system.cpu.dcache.demand_miss_rate::total     0.003333                      
system.cpu.dcache.overall_miss_rate::cpu.data     0.003333                      
system.cpu.dcache.overall_miss_rate::total     0.003333                      
system.cpu.dcache.ReadReq_avg_miss_latency::cpu.data        63000                      
system.cpu.dcache.ReadReq_avg_miss_latency::total        63000                      
system.cpu.dcache.WriteReq_avg_miss_latency::cpu.data        63000                      
system.cpu.dcache.WriteReq_avg_miss_latency::total        63000                      
system.cpu.dcache.LoadLockedReq_avg_miss_latency::cpu.data        63000                      
system.cpu.dcache.LoadLockedReq_avg_miss_latency::total        63000                      
system.cpu.dcache.demand_avg_miss_latency::cpu.data        63000                      
system.cpu.dcache.demand_avg_miss_latency::total        63000                      
system.cpu.dcache.overall_avg_miss_latency::cpu.data        63000                      
system.cpu.dcache.overall_avg_miss_latency::total        63000                      
system.cpu.dcache.blocked_cycles::no_mshrs            0                      
system.cpu.dcache.blocked_cycles::no_targets            0                      
system.cpu.dcache.blocked::no_mshrs                 0                      
system.cpu.dcache.blocked::no_targets               0                      
system.cpu.dcache.avg_blocked_cycles::no_mshrs          nan                      
system.cpu.dcache.avg_blocked_cycles::no_targets          nan                      
system.cpu.dcache.writebacks::writebacks            2                      
system.cpu.dcache.writebacks::total                 2                      
system.cpu.dcache.ReadReq_mshr_misses::cpu.data          297                      
system.cpu.dcache.ReadReq_mshr_misses::total          297                      
system.cpu.dcache.WriteReq_mshr_misses::cpu.data          227                      
system.cpu.dcache.WriteReq_mshr_misses::total          227                      
system.cpu.dcache.LoadLockedReq_mshr_misses::cpu.data            2                      
system.cpu.dcache.LoadLockedReq_mshr_misses::total            2                      
system.cpu.dcache.demand_mshr_misses::cpu.data          524                      
system.cpu.dcache.demand_mshr_misses::total          524                      
system.cpu.dcache.overall_mshr_misses::cpu.data          524                      
system.cpu.dcache.overall_mshr_misses::total          524                      
system.cpu.dcache.ReadReq_mshr_miss_latency::cpu.data     18414000                      
system.cpu.dcache.ReadReq_mshr_miss_latency::total     18414000                      
system.cpu.dcache.WriteReq_mshr_miss_latency::cpu.data     14074000                      
system.cpu.dcache.WriteReq_mshr_miss_latency::total     14074000                      
system.cpu.dcache.LoadLockedReq_mshr_miss_latency::cpu.data       124000                      
system.cpu.dcache.LoadLockedReq_mshr_miss_latency::total       124000                      
system.cpu.dcache.demand_mshr_miss_latency::cpu.data     32488000                      
system.cpu.dcache.demand_mshr_miss_latency::total     32488000                      
system.cpu.dcache.overall_mshr_miss_latency::cpu.data     32488000                      
system.cpu.dcache.overall_mshr_miss_latency::total     32488000                      
system.cpu.dcache.ReadReq_mshr_miss_rate::cpu.data     0.003022                      
system.cpu.dcache.ReadReq_mshr_miss_rate::total     0.003022                      
system.cpu.dcache.WriteReq_mshr_miss_rate::cpu.data     0.003850                      
system.cpu.dcache.WriteReq_mshr_miss_rate::total     0.003850                      
system.cpu.dcache.LoadLockedReq_mshr_miss_rate::cpu.data     0.001217                      
system.cpu.dcache.LoadLockedReq_mshr_miss_rate::total     0.001217                      
system.cpu.dcache.demand_mshr_miss_rate::cpu.data     0.003333                      
system.cpu.dcache.demand_mshr_miss_rate::total     0.003333                      
system.cpu.dcache.overall_mshr_miss_rate::cpu.data     0.003333                      
system.cpu.dcache.overall_mshr_miss_rate::total     0.003333                      
system.cpu.dcache.ReadReq_avg_mshr_miss_latency::cpu.data        62000                      
system.cpu.dcache.ReadReq_avg_mshr_miss_latency::total        62000                      
system.cpu.dcache.WriteReq_avg_mshr_miss_latency::cpu.data        62000                      
system.cpu.dcache.WriteReq_avg_mshr_miss_latency::total        62000                      
system.cpu.dcache.LoadLockedReq_avg_mshr_miss_latency::cpu.data        62000                      
system.cpu.dcache.LoadLockedReq_avg_mshr_miss_latency::total        62000                      
system.cpu.dcache.demand_avg_mshr_miss_latency::cpu.data        62000                      
system.cpu.dcache.demand_avg_mshr_miss_latency::total        62000                      
system.cpu.dcache.overall_avg_mshr_miss_latency::cpu.data        62000                      
system.cpu.dcache.overall_avg_mshr_miss_latency::total        62000                      
system.cpu.icache.tags.pwrStateResidencyTicks::UNDEFINED    716800500                      
system.cpu.icache.tags.replacements                54                      
system.cpu.icache.tags.tagsinuse           673.651726                      
system.cpu.icache.tags.total_refs              458533                      
system.cpu.icache.tags.sampled_refs              1035                      
system.cpu.icache.tags.avg_refs            443.027053                      
system.cpu.icache.tags.warmup_cycle             62500                      
system.cpu.icache.tags.occ_blocks::cpu.inst   673.651726                      
system.cpu.icache.tags.occ_percent::cpu.inst     0.328931                      
system.cpu.icache.tags.occ_percent::total     0.328931                      
system.cpu.icache.tags.occ_task_id_blocks::1024          981                      
system.cpu.icache.tags.age_task_id_blocks_1024::0           41                      
system.cpu.icache.tags.age_task_id_blocks_1024::1           62                      
system.cpu.icache.tags.age_task_id_blocks_1024::2          878                      
system.cpu.icache.tags.occ_task_id_percent::1024     0.479003                      
system.cpu.icache.tags.tag_accesses            920171                      
system.cpu.icache.tags.data_accesses           920171                      
system.cpu.icache.pwrStateResidencyTicks::UNDEFINED    716800500                      
system.cpu.icache.ReadReq_hits::cpu.inst       458533                      
system.cpu.icache.ReadReq_hits::total          458533                      
system.cpu.icache.demand_hits::cpu.inst        458533                      
system.cpu.icache.demand_hits::total           458533                      
system.cpu.icache.overall_hits::cpu.inst       458533                      
system.cpu.icache.overall_hits::total          458533                      
system.cpu.icache.ReadReq_misses::cpu.inst         1035                      
system.cpu.icache.ReadReq_misses::total          1035                      
system.cpu.icache.demand_misses::cpu.inst         1035                      
system.cpu.icache.demand_misses::total           1035                      
system.cpu.icache.overall_misses::cpu.inst         1035                      
system.cpu.icache.overall_misses::total          1035                      
system.cpu.icache.ReadReq_miss_latency::cpu.inst     65156500                      
system.cpu.icache.ReadReq_miss_latency::total     65156500                      
system.cpu.icache.demand_miss_latency::cpu.inst     65156500                      
system.cpu.icache.demand_miss_latency::total     65156500                      
system.cpu.icache.overall_miss_latency::cpu.inst     65156500                      
system.cpu.icache.overall_miss_latency::total     65156500                      
system.cpu.icache.ReadReq_accesses::cpu.inst       459568                      
system.cpu.icache.ReadReq_accesses::total       459568                      
system.cpu.icache.demand_accesses::cpu.inst       459568                      
system.cpu.icache.demand_accesses::total       459568                      
system.cpu.icache.overall_accesses::cpu.inst       459568                      
system.cpu.icache.overall_accesses::total       459568                      
system.cpu.icache.ReadReq_miss_rate::cpu.inst     0.002252                      
system.cpu.icache.ReadReq_miss_rate::total     0.002252                      
system.cpu.icache.demand_miss_rate::cpu.inst     0.002252                      
system.cpu.icache.demand_miss_rate::total     0.002252                      
system.cpu.icache.overall_miss_rate::cpu.inst     0.002252                      
system.cpu.icache.overall_miss_rate::total     0.002252                      
system.cpu.icache.ReadReq_avg_miss_latency::cpu.inst 62953.140096                      
system.cpu.icache.ReadReq_avg_miss_latency::total 62953.140096                      
system.cpu.icache.demand_avg_miss_latency::cpu.inst 62953.140096                      
system.cpu.icache.demand_avg_miss_latency::total 62953.140096                      
system.cpu.icache.overall_avg_miss_latency::cpu.inst 62953.140096                      
system.cpu.icache.overall_avg_miss_latency::total 62953.140096                      
system.cpu.icache.blocked_cycles::no_mshrs            0                      
system.cpu.icache.blocked_cycles::no_targets            0                      
system.cpu.icache.blocked::no_mshrs                 0                      
system.cpu.icache.blocked::no_targets               0                      
system.cpu.icache.avg_blocked_cycles::no_mshrs          nan                      
system.cpu.icache.avg_blocked_cycles::no_targets          nan                      
system.cpu.icache.writebacks::writebacks           54                      
system.cpu.icache.writebacks::total                54                      
system.cpu.icache.ReadReq_mshr_misses::cpu.inst         1035                      
system.cpu.icache.ReadReq_mshr_misses::total         1035                      
system.cpu.icache.demand_mshr_misses::cpu.inst         1035                      
system.cpu.icache.demand_mshr_misses::total         1035                      
system.cpu.icache.overall_mshr_misses::cpu.inst         1035                      
system.cpu.icache.overall_mshr_misses::total         1035                      
system.cpu.icache.ReadReq_mshr_miss_latency::cpu.inst     64121500                      
system.cpu.icache.ReadReq_mshr_miss_latency::total     64121500                      
system.cpu.icache.demand_mshr_miss_latency::cpu.inst     64121500                      
system.cpu.icache.demand_mshr_miss_latency::total     64121500                      
system.cpu.icache.overall_mshr_miss_latency::cpu.inst     64121500                      
system.cpu.icache.overall_mshr_miss_latency::total     64121500                      
system.cpu.icache.ReadReq_mshr_miss_rate::cpu.inst     0.002252                      
system.cpu.icache.ReadReq_mshr_miss_rate::total     0.002252                      
system.cpu.icache.demand_mshr_miss_rate::cpu.inst     0.002252                      
system.cpu.icache.demand_mshr_miss_rate::total     0.002252                      
system.cpu.icache.overall_mshr_miss_rate::cpu.inst     0.002252                      
system.cpu.icache.overall_mshr_miss_rate::total     0.002252                      
system.cpu.icache.ReadReq_avg_mshr_miss_latency::cpu.inst 61953.140096                      
system.cpu.icache.ReadReq_avg_mshr_miss_latency::total 61953.140096                      
system.cpu.icache.demand_avg_mshr_miss_latency::cpu.inst 61953.140096                      
system.cpu.icache.demand_avg_mshr_miss_latency::total 61953.140096                      
system.cpu.icache.overall_avg_mshr_miss_latency::cpu.inst 61953.140096                      
system.cpu.icache.overall_avg_mshr_miss_latency::total 61953.140096                      
system.cpu.l2cache.tags.pwrStateResidencyTicks::UNDEFINED    716800500                      
system.cpu.l2cache.tags.replacements                0                      
system.cpu.l2cache.tags.tagsinuse         1131.224126                      
system.cpu.l2cache.tags.total_refs                 57                      
system.cpu.l2cache.tags.sampled_refs             1560                      
system.cpu.l2cache.tags.avg_refs             0.036538                      
system.cpu.l2cache.tags.warmup_cycle            52000                      
system.cpu.l2cache.tags.occ_blocks::cpu.inst   699.522951                      
system.cpu.l2cache.tags.occ_blocks::cpu.data   431.701175                      
system.cpu.l2cache.tags.occ_percent::cpu.inst     0.021347                      
system.cpu.l2cache.tags.occ_percent::cpu.data     0.013174                      
system.cpu.l2cache.tags.occ_percent::total     0.034522                      
system.cpu.l2cache.tags.occ_task_id_blocks::1024         1560                      
system.cpu.l2cache.tags.age_task_id_blocks_1024::0           56                      
system.cpu.l2cache.tags.age_task_id_blocks_1024::1           74                      
system.cpu.l2cache.tags.age_task_id_blocks_1024::2         1430                      
system.cpu.l2cache.tags.occ_task_id_percent::1024     0.047607                      
system.cpu.l2cache.tags.tag_accesses            14496                      
system.cpu.l2cache.tags.data_accesses           14496                      
system.cpu.l2cache.pwrStateResidencyTicks::UNDEFINED    716800500                      
system.cpu.l2cache.WritebackDirty_hits::writebacks            2                      
system.cpu.l2cache.WritebackDirty_hits::total            2                      
system.cpu.l2cache.WritebackClean_hits::writebacks           54                      
system.cpu.l2cache.WritebackClean_hits::total           54                      
system.cpu.l2cache.ReadCleanReq_hits::cpu.inst            1                      
system.cpu.l2cache.ReadCleanReq_hits::total            1                      
system.cpu.l2cache.demand_hits::cpu.inst            1                      
system.cpu.l2cache.demand_hits::total               1                      
system.cpu.l2cache.overall_hits::cpu.inst            1                      
system.cpu.l2cache.overall_hits::total              1                      
system.cpu.l2cache.ReadExReq_misses::cpu.data          227                      
system.cpu.l2cache.ReadExReq_misses::total          227                      
system.cpu.l2cache.ReadCleanReq_misses::cpu.inst         1034                      
system.cpu.l2cache.ReadCleanReq_misses::total         1034                      
system.cpu.l2cache.ReadSharedReq_misses::cpu.data          299                      
system.cpu.l2cache.ReadSharedReq_misses::total          299                      
system.cpu.l2cache.demand_misses::cpu.inst         1034                      
system.cpu.l2cache.demand_misses::cpu.data          526                      
system.cpu.l2cache.demand_misses::total          1560                      
system.cpu.l2cache.overall_misses::cpu.inst         1034                      
system.cpu.l2cache.overall_misses::cpu.data          526                      
system.cpu.l2cache.overall_misses::total         1560                      
system.cpu.l2cache.ReadExReq_miss_latency::cpu.data     13733500                      
system.cpu.l2cache.ReadExReq_miss_latency::total     13733500                      
system.cpu.l2cache.ReadCleanReq_miss_latency::cpu.inst     62558000                      
system.cpu.l2cache.ReadCleanReq_miss_latency::total     62558000                      
system.cpu.l2cache.ReadSharedReq_miss_latency::cpu.data     18089500                      
system.cpu.l2cache.ReadSharedReq_miss_latency::total     18089500                      
system.cpu.l2cache.demand_miss_latency::cpu.inst     62558000                      
system.cpu.l2cache.demand_miss_latency::cpu.data     31823000                      
system.cpu.l2cache.demand_miss_latency::total     94381000                      
system.cpu.l2cache.overall_miss_latency::cpu.inst     62558000                      
system.cpu.l2cache.overall_miss_latency::cpu.data     31823000                      
system.cpu.l2cache.overall_miss_latency::total     94381000                      
system.cpu.l2cache.WritebackDirty_accesses::writebacks            2                      
system.cpu.l2cache.WritebackDirty_accesses::total            2                      
system.cpu.l2cache.WritebackClean_accesses::writebacks           54                      
system.cpu.l2cache.WritebackClean_accesses::total           54                      
system.cpu.l2cache.ReadExReq_accesses::cpu.data          227                      
system.cpu.l2cache.ReadExReq_accesses::total          227                      
system.cpu.l2cache.ReadCleanReq_accesses::cpu.inst         1035                      
system.cpu.l2cache.ReadCleanReq_accesses::total         1035                      
system.cpu.l2cache.ReadSharedReq_accesses::cpu.data          299                      
system.cpu.l2cache.ReadSharedReq_accesses::total          299                      
system.cpu.l2cache.demand_accesses::cpu.inst         1035                      
system.cpu.l2cache.demand_accesses::cpu.data          526                      
system.cpu.l2cache.demand_accesses::total         1561                      
system.cpu.l2cache.overall_accesses::cpu.inst         1035                      
system.cpu.l2cache.overall_accesses::cpu.data          526                      
system.cpu.l2cache.overall_accesses::total         1561                      
system.cpu.l2cache.ReadExReq_miss_rate::cpu.data            1                      
system.cpu.l2cache.ReadExReq_miss_rate::total            1                      
system.cpu.l2cache.ReadCleanReq_miss_rate::cpu.inst     0.999033                      
system.cpu.l2cache.ReadCleanReq_miss_rate::total     0.999033                      
system.cpu.l2cache.ReadSharedReq_miss_rate::cpu.data            1                      
system.cpu.l2cache.ReadSharedReq_miss_rate::total            1                      
system.cpu.l2cache.demand_miss_rate::cpu.inst     0.999033                      
system.cpu.l2cache.demand_miss_rate::cpu.data            1                      
system.cpu.l2cache.demand_miss_rate::total     0.999359                      
system.cpu.l2cache.overall_miss_rate::cpu.inst     0.999033                      
system.cpu.l2cache.overall_miss_rate::cpu.data            1                      
system.cpu.l2cache.overall_miss_rate::total     0.999359                      
system.cpu.l2cache.ReadExReq_avg_miss_latency::cpu.data        60500                      
system.cpu.l2cache.ReadExReq_avg_miss_latency::total        60500                      
system.cpu.l2cache.ReadCleanReq_avg_miss_latency::cpu.inst 60500.967117                      
system.cpu.l2cache.ReadCleanReq_avg_miss_latency::total 60500.967117                      
system.cpu.l2cache.ReadSharedReq_avg_miss_latency::cpu.data        60500                      
system.cpu.l2cache.ReadSharedReq_avg_miss_latency::total        60500                      
system.cpu.l2cache.demand_avg_miss_latency::cpu.inst 60500.967117                      
system.cpu.l2cache.demand_avg_miss_latency::cpu.data        60500                      
system.cpu.l2cache.demand_avg_miss_latency::total 60500.641025                      
system.cpu.l2cache.overall_avg_miss_latency::cpu.inst 60500.967117                      
system.cpu.l2cache.overall_avg_miss_latency::cpu.data        60500                      
system.cpu.l2cache.overall_avg_miss_latency::total 60500.641025                      
system.cpu.l2cache.blocked_cycles::no_mshrs            0                      
system.cpu.l2cache.blocked_cycles::no_targets            0                      
system.cpu.l2cache.blocked::no_mshrs                0                      
system.cpu.l2cache.blocked::no_targets              0                      
system.cpu.l2cache.avg_blocked_cycles::no_mshrs          nan                      
system.cpu.l2cache.avg_blocked_cycles::no_targets          nan                      
system.cpu.l2cache.ReadExReq_mshr_misses::cpu.data          227                      
system.cpu.l2cache.ReadExReq_mshr_misses::total          227                      
system.cpu.l2cache.ReadCleanReq_mshr_misses::cpu.inst         1034                      
system.cpu.l2cache.ReadCleanReq_mshr_misses::total         1034                      
system.cpu.l2cache.ReadSharedReq_mshr_misses::cpu.data          299                      
system.cpu.l2cache.ReadSharedReq_mshr_misses::total          299                      
system.cpu.l2cache.demand_mshr_misses::cpu.inst         1034                      
system.cpu.l2cache.demand_mshr_misses::cpu.data          526                      
system.cpu.l2cache.demand_mshr_misses::total         1560                      
system.cpu.l2cache.overall_mshr_misses::cpu.inst         1034                      
system.cpu.l2cache.overall_mshr_misses::cpu.data          526                      
system.cpu.l2cache.overall_mshr_misses::total         1560                      
system.cpu.l2cache.ReadExReq_mshr_miss_latency::cpu.data     11463500                      
system.cpu.l2cache.ReadExReq_mshr_miss_latency::total     11463500                      
system.cpu.l2cache.ReadCleanReq_mshr_miss_latency::cpu.inst     52218000                      
system.cpu.l2cache.ReadCleanReq_mshr_miss_latency::total     52218000                      
system.cpu.l2cache.ReadSharedReq_mshr_miss_latency::cpu.data     15099500                      
system.cpu.l2cache.ReadSharedReq_mshr_miss_latency::total     15099500                      
system.cpu.l2cache.demand_mshr_miss_latency::cpu.inst     52218000                      
system.cpu.l2cache.demand_mshr_miss_latency::cpu.data     26563000                      
system.cpu.l2cache.demand_mshr_miss_latency::total     78781000                      
system.cpu.l2cache.overall_mshr_miss_latency::cpu.inst     52218000                      
system.cpu.l2cache.overall_mshr_miss_latency::cpu.data     26563000                      
system.cpu.l2cache.overall_mshr_miss_latency::total     78781000                      
system.cpu.l2cache.ReadExReq_mshr_miss_rate::cpu.data            1                      
system.cpu.l2cache.ReadExReq_mshr_miss_rate::total            1                      
system.cpu.l2cache.ReadCleanReq_mshr_miss_rate::cpu.inst     0.999033                      
system.cpu.l2cache.ReadCleanReq_mshr_miss_rate::total     0.999033                      
system.cpu.l2cache.ReadSharedReq_mshr_miss_rate::cpu.data            1                      
system.cpu.l2cache.ReadSharedReq_mshr_miss_rate::total            1                      
system.cpu.l2cache.demand_mshr_miss_rate::cpu.inst     0.999033                      
system.cpu.l2cache.demand_mshr_miss_rate::cpu.data            1                      
system.cpu.l2cache.demand_mshr_miss_rate::total     0.999359                      
system.cpu.l2cache.overall_mshr_miss_rate::cpu.inst     0.999033                      
system.cpu.l2cache.overall_mshr_miss_rate::cpu.data            1                      
system.cpu.l2cache.overall_mshr_miss_rate::total     0.999359                      
system.cpu.l2cache.ReadExReq_avg_mshr_miss_latency::cpu.data        50500                      
system.cpu.l2cache.ReadExReq_avg_mshr_miss_latency::total        50500                      
system.cpu.l2cache.ReadCleanReq_avg_mshr_miss_latency::cpu.inst 50500.967117                      
system.cpu.l2cache.ReadCleanReq_avg_mshr_miss_latency::total 50500.967117                      
system.cpu.l2cache.ReadSharedReq_avg_mshr_miss_latency::cpu.data        50500                      
system.cpu.l2cache.ReadSharedReq_avg_mshr_miss_latency::total        50500                      
system.cpu.l2cache.demand_avg_mshr_miss_latency::cpu.inst 50500.967117                      
system.cpu.l2cache.demand_avg_mshr_miss_latency::cpu.data        50500                      
system.cpu.l2cache.demand_avg_mshr_miss_latency::total 50500.641025                      
system.cpu.l2cache.overall_avg_mshr_miss_latency::cpu.inst 50500.967117                      
system.cpu.l2cache.overall_avg_mshr_miss_latency::cpu.data        50500                      
system.cpu.l2cache.overall_avg_mshr_miss_latency::total 50500.641025                      
system.cpu.toL2Bus.snoop_filter.tot_requests         1617                      
system.cpu.toL2Bus.snoop_filter.hit_single_requests           56                      
system.cpu.toL2Bus.snoop_filter.hit_multi_requests            0                      
system.cpu.toL2Bus.snoop_filter.tot_snoops            0                      
system.cpu.toL2Bus.snoop_filter.hit_single_snoops            0                      
system.cpu.toL2Bus.snoop_filter.hit_multi_snoops            0                      
system.cpu.toL2Bus.pwrStateResidencyTicks::UNDEFINED    716800500                      
system.cpu.toL2Bus.trans_dist::ReadResp          1334                      
system.cpu.toL2Bus.trans_dist::WritebackDirty            2                      
system.cpu.toL2Bus.trans_dist::WritebackClean           54                      
system.cpu.toL2Bus.trans_dist::ReadExReq          227                      
system.cpu.toL2Bus.trans_dist::ReadExResp          227                      
system.cpu.toL2Bus.trans_dist::ReadCleanReq         1035                      
system.cpu.toL2Bus.trans_dist::ReadSharedReq          299                      
system.cpu.toL2Bus.pkt_count_system.cpu.icache.mem_side::system.cpu.l2cache.cpu_side         2124                      
system.cpu.toL2Bus.pkt_count_system.cpu.dcache.mem_side::system.cpu.l2cache.cpu_side         1054                      
system.cpu.toL2Bus.pkt_count::total              3178                      
system.cpu.toL2Bus.pkt_size_system.cpu.icache.mem_side::system.cpu.l2cache.cpu_side        69696                      
system.cpu.toL2Bus.pkt_size_system.cpu.dcache.mem_side::system.cpu.l2cache.cpu_side        33792                      
system.cpu.toL2Bus.pkt_size::total             103488                      
system.cpu.toL2Bus.snoops                           0                      
system.cpu.toL2Bus.snoopTraffic                     0                      
system.cpu.toL2Bus.snoop_fanout::samples         1561                      
system.cpu.toL2Bus.snoop_fanout::mean               0                      
system.cpu.toL2Bus.snoop_fanout::stdev             -0                      
system.cpu.toL2Bus.snoop_fanout::underflows            0      0.00%      0.00%
system.cpu.toL2Bus.snoop_fanout::0               1561    100.00%    100.00%
system.cpu.toL2Bus.snoop_fanout::1                  0      0.00%    100.00%
system.cpu.toL2Bus.snoop_fanout::2                  0      0.00%    100.00%
system.cpu.toL2Bus.snoop_fanout::overflows            0      0.00%    100.00%
system.cpu.toL2Bus.snoop_fanout::min_value            0                      
system.cpu.toL2Bus.snoop_fanout::max_value            0                      
system.cpu.toL2Bus.snoop_fanout::total           1561                      
system.cpu.toL2Bus.reqLayer0.occupancy         864500                      
system.cpu.toL2Bus.reqLayer0.utilization          0.1                      
system.cpu.toL2Bus.respLayer0.occupancy       1552500                      
system.cpu.toL2Bus.respLayer0.utilization          0.2                      
system.cpu.toL2Bus.respLayer1.occupancy        789000                      
system.cpu.toL2Bus.respLayer1.utilization          0.1                      
system.membus.snoop_filter.tot_requests          1560                      
system.membus.snoop_filter.hit_single_requests            0                      
system.membus.snoop_filter.hit_multi_requests            0                      
system.membus.snoop_filter.tot_snoops               0                      
system.membus.snoop_filter.hit_single_snoops            0                      
system.membus.snoop_filter.hit_multi_snoops            0                      
system.membus.pwrStateResidencyTicks::UNDEFINED    716800500                      
system.membus.trans_dist::ReadResp               1333                      
system.membus.trans_dist::ReadExReq               227                      
system.membus.trans_dist::ReadExResp              227                      
system.membus.trans_dist::ReadSharedReq          1333                      
system.membus.pkt_count_system.cpu.l2cache.mem_side::system.physmem.port         3120                      
system.membus.pkt_count::total                   3120                      
system.membus.pkt_size_system.cpu.l2cache.mem_side::system.physmem.port        99840                      
system.membus.pkt_size::total                   99840                      
system.membus.snoops                                0                      
system.membus.snoopTraffic                          0                      
system.membus.snoop_fanout::samples              1560                      
system.membus.snoop_fanout::mean                    0                      
system.membus.snoop_fanout::stdev                  -0                      
system.membus.snoop_fanout::underflows              0      0.00%      0.00%
system.membus.snoop_fanout::0                    1560    100.00%    100.00%
system.membus.snoop_fanout::1                       0      0.00%    100.00%
system.membus.snoop_fanout::overflows               0      0.00%    100.00%
system.membus.snoop_fanout::min_value               0                      
system.membus.snoop_fanout::max_value               0                      
system.membus.snoop_fanout::total                1560                      
system.membus.reqLayer0.occupancy             1561000                      
system.membus.reqLayer0.utilization               0.2                      
system.membus.respLayer1.occupancy            7800000                      
system.membus.respLayer1.utilization              1.0                      

---------- End Simulation Statistics   ----------
