
---------- Begin Simulation Statistics ----------
sim_seconds                                  0.000524                      
sim_ticks                                   524161500                      
final_tick                                  524161500                      
sim_freq                                 1000000000000                      
host_inst_rate                                 269958                      
host_op_rate                                   270731                      
host_tick_rate                              526636369                      
host_mem_usage                                 401192                      
host_seconds                                     1.00                      
sim_insts                                      268679                      
sim_ops                                        269454                      
system.voltage_domain.voltage                       1                      
system.clk_domain.clock                          1000                      
system.physmem.pwrStateResidencyTicks::UNDEFINED    524161500                      
system.physmem.bytes_read::cpu.inst             61568                      
system.physmem.bytes_read::cpu.data             30912                      
system.physmem.bytes_read::total                92480                      
system.physmem.bytes_inst_read::cpu.inst        61568                      
system.physmem.bytes_inst_read::total           61568                      
system.physmem.num_reads::cpu.inst                962                      
system.physmem.num_reads::cpu.data                483                      
system.physmem.num_reads::total                  1445                      
system.physmem.bw_read::cpu.inst            117459981                      
system.physmem.bw_read::cpu.data             58974190                      
system.physmem.bw_read::total               176434172                      
system.physmem.bw_inst_read::cpu.inst       117459981                      
system.physmem.bw_inst_read::total          117459981                      
system.physmem.bw_total::cpu.inst           117459981                      
system.physmem.bw_total::cpu.data            58974190                      
system.physmem.bw_total::total              176434172                      
system.pwrStateResidencyTicks::UNDEFINED    524161500                      
system.cpu_clk_domain.clock                       500                      
system.cpu.dtb.read_hits                            0                      
system.cpu.dtb.read_misses                          0                      
system.cpu.dtb.read_accesses                        0                      
system.cpu.dtb.write_hits                           0                      
system.cpu.dtb.write_misses                         0                      
system.cpu.dtb.write_accesses                       0                      
system.cpu.dtb.hits                                 0                      
system.cpu.dtb.misses                               0                      
system.cpu.dtb.accesses                             0                      
system.cpu.itb.read_hits                            0                      
system.cpu.itb.read_misses                          0                      
system.cpu.itb.read_accesses                        0                      
system.cpu.itb.write_hits                           0                      
system.cpu.itb.write_misses                         0                      
system.cpu.itb.write_accesses                       0                      
system.cpu.itb.hits                                 0                      
system.cpu.itb.misses                               0                      
system.cpu.itb.accesses                             0                      
system.cpu.workload.numSyscalls                   183                      
system.cpu.pwrStateResidencyTicks::ON       524161500                      
system.cpu.numCycles                          1048323                      
system.cpu.numWorkItemsStarted                      0                      
system.cpu.numWorkItemsCompleted                    0                      
system.cpu.committedInsts                      268679                      
system.cpu.committedOps                        269454                      
system.cpu.num_int_alu_accesses                268028                      
system.cpu.num_fp_alu_accesses                     12                      
system.cpu.num_vec_alu_accesses                     0                      
system.cpu.num_func_calls                       15774                      
system.cpu.num_conditional_control_insts        41505                      
system.cpu.num_int_insts                       268028                      
system.cpu.num_fp_insts                            12                      
system.cpu.num_vec_insts                            0                      
system.cpu.num_int_register_reads              336729                      
system.cpu.num_int_register_writes             179483                      
system.cpu.num_fp_register_reads                   12                      
system.cpu.num_fp_register_writes                   0                      
system.cpu.num_vec_register_reads                   0                      
system.cpu.num_vec_register_writes                  0                      
system.cpu.num_mem_refs                        110028                      
system.cpu.num_load_insts                       68237                      
system.cpu.num_store_insts                      41791                      
system.cpu.num_idle_cycles                          0                      
system.cpu.num_busy_cycles                    1048323                      
system.cpu.not_idle_fraction                        1                      
system.cpu.idle_fraction                            0                      
system.cpu.Branches                             57279                      
system.cpu.op_class::No_OpClass                   192      0.07%      0.07%
system.cpu.op_class::IntAlu                    158712     58.86%     58.93%
system.cpu.op_class::IntMult                      439      0.16%     59.10%
system.cpu.op_class::IntDiv                       266      0.10%     59.19%
system.cpu.op_class::FloatAdd                       0      0.00%     59.19%
system.cpu.op_class::FloatCmp                       0      0.00%     59.19%
system.cpu.op_class::FloatCvt                       0      0.00%     59.19%
system.cpu.op_class::FloatMult                      0      0.00%     59.19%
system.cpu.op_class::FloatMultAcc                   0      0.00%     59.19%
system.cpu.op_class::FloatDiv                       0      0.00%     59.19%
system.cpu.op_class::FloatMisc                      0      0.00%     59.19%
system.cpu.op_class::FloatSqrt                      0      0.00%     59.19%
system.cpu.op_class::SimdAdd                        0      0.00%     59.19%
system.cpu.op_class::SimdAddAcc                     0      0.00%     59.19%
system.cpu.op_class::SimdAlu                        0      0.00%     59.19%
system.cpu.op_class::SimdCmp                        0      0.00%     59.19%
system.cpu.op_class::SimdCvt                        0      0.00%     59.19%
system.cpu.op_class::SimdMisc                       0      0.00%     59.19%
system.cpu.op_class::SimdMult                       0      0.00%     59.19%
system.cpu.op_class::SimdMultAcc                    0      0.00%     59.19%
system.cpu.op_class::SimdShift                      0      0.00%     59.19%
system.cpu.op_class::SimdShiftAcc                   0      0.00%     59.19%
system.cpu.op_class::SimdSqrt                       0      0.00%     59.19%
system.cpu.op_class::SimdFloatAdd                   0      0.00%     59.19%
system.cpu.op_class::SimdFloatAlu                   0      0.00%     59.19%
system.cpu.op_class::SimdFloatCmp                   0      0.00%     59.19%
system.cpu.op_class::SimdFloatCvt                   0      0.00%     59.19%
system.cpu.op_class::SimdFloatDiv                   0      0.00%     59.19%
system.cpu.op_class::SimdFloatMisc                  0      0.00%     59.19%
system.cpu.op_class::SimdFloatMult                  0      0.00%     59.19%
system.cpu.op_class::SimdFloatMultAcc               0      0.00%     59.19%
system.cpu.op_class::SimdFloatSqrt                  0      0.00%     59.19%
system.cpu.op_class::MemRead                    68237     25.31%     84.50%
system.cpu.op_class::MemWrite                   41779     15.49%    100.00%
system.cpu.op_class::FloatMemRead                   0      0.00%    100.00%
system.cpu.op_class::FloatMemWrite                 12      0.00%    100.00%
system.cpu.op_class::IprAccess                      0      0.00%    100.00%
system.cpu.op_class::InstPrefetch                   0      0.00%    100.00%
system.cpu.op_class::total                     269637                      
system.cpu.dcache.tags.pwrStateResidencyTicks::UNDEFINED    524161500                      
system.cpu.dcache.tags.replacements                 0                      
system.cpu.dcache.tags.tagsinuse           395.271250                      
system.cpu.dcache.tags.total_refs              109545                      
system.cpu.dcache.tags.sampled_refs               483                      
system.cpu.dcache.tags.avg_refs            226.801242                      
system.cpu.dcache.tags.warmup_cycle            196500                      
system.cpu.dcache.tags.occ_blocks::cpu.data   395.271250                      
system.cpu.dcache.tags.occ_percent::cpu.data     0.096502                      
system.cpu.dcache.tags.occ_percent::total     0.096502                      
system.cpu.dcache.tags.occ_task_id_blocks::1024          483                      
system.cpu.dcache.tags.age_task_id_blocks_1024::0           14                      
system.cpu.dcache.tags.age_task_id_blocks_1024::1            7                      
system.cpu.dcache.tags.age_task_id_blocks_1024::2          462                      
system.cpu.dcache.tags.occ_task_id_percent::1024     0.117920                      
system.cpu.dcache.tags.tag_accesses            220539                      
system.cpu.dcache.tags.data_accesses           220539                      
system.cpu.dcache.pwrStateResidencyTicks::UNDEFINED    524161500                      
system.cpu.dcache.ReadReq_hits::cpu.data        67196                      
system.cpu.dcache.ReadReq_hits::total           67196                      
system.cpu.dcache.WriteReq_hits::cpu.data        40782                      
system.cpu.dcache.WriteReq_hits::total          40782                      
system.cpu.dcache.LoadLockedReq_hits::cpu.data          783                      
system.cpu.dcache.LoadLockedReq_hits::total          783                      
system.cpu.dcache.StoreCondReq_hits::cpu.data          784                      
system.cpu.dcache.StoreCondReq_hits::total          784                      
system.cpu.dcache.demand_hits::cpu.data        107978                      
system.cpu.dcache.demand_hits::total           107978                      
system.cpu.dcache.overall_hits::cpu.data       107978                      
system.cpu.dcache.overall_hits::total          107978                      
system.cpu.dcache.ReadReq_misses::cpu.data          257                      
system.cpu.dcache.ReadReq_misses::total           257                      
system.cpu.dcache.WriteReq_misses::cpu.data          225                      
system.cpu.dcache.WriteReq_misses::total          225                      
system.cpu.dcache.LoadLockedReq_misses::cpu.data            1                      
system.cpu.dcache.LoadLockedReq_misses::total            1                      
system.cpu.dcache.demand_misses::cpu.data          482                      
system.cpu.dcache.demand_misses::total            482                      
system.cpu.dcache.overall_misses::cpu.data          482                      
system.cpu.dcache.overall_misses::total           482                      
system.cpu.dcache.ReadReq_miss_latency::cpu.data     16191000                      
system.cpu.dcache.ReadReq_miss_latency::total     16191000                      
system.cpu.dcache.WriteReq_miss_latency::cpu.data     14175000                      
system.cpu.dcache.WriteReq_miss_latency::total     14175000                      
system.cpu.dcache.LoadLockedReq_miss_latency::cpu.data        63000                      
system.cpu.dcache.LoadLockedReq_miss_latency::total        63000                      
system.cpu.dcache.demand_miss_latency::cpu.data     30366000                      
system.cpu.dcache.demand_miss_latency::total     30366000                      
system.cpu.dcache.overall_miss_latency::cpu.data     30366000                      
system.cpu.dcache.overall_miss_latency::total     30366000                      
system.cpu.dcache.ReadReq_accesses::cpu.data        67453                      
system.cpu.dcache.ReadReq_accesses::total        67453                      
system.cpu.dcache.WriteReq_accesses::cpu.data        41007                      
system.cpu.dcache.WriteReq_accesses::total        41007                      
system.cpu.dcache.LoadLockedReq_accesses::cpu.data          784                      
system.cpu.dcache.LoadLockedReq_accesses::total          784                      
system.cpu.dcache.StoreCondReq_accesses::cpu.data          784                      
system.cpu.dcache.StoreCondReq_accesses::total          784                      
system.cpu.dcache.demand_accesses::cpu.data       108460                      
system.cpu.dcache.demand_accesses::total       108460                      
system.cpu.dcache.overall_accesses::cpu.data       108460                      
system.cpu.dcache.overall_accesses::total       108460                      
system.cpu.dcache.ReadReq_miss_rate::cpu.data     0.003810                      
system.cpu.dcache.ReadReq_miss_rate::total     0.003810                      
system.cpu.dcache.WriteReq_miss_rate::cpu.data     0.005487                      
system.cpu.dcache.WriteReq_miss_rate::total     0.005487                      
system.cpu.dcache.LoadLockedReq_miss_rate::cpu.data     0.001276                      
system.cpu.dcache.LoadLockedReq_miss_rate::total     0.001276                      
system.cpu.dcache.demand_miss_rate::cpu.data     0.004444                      
system.cpu.dcache.demand_miss_rate::total     0.004444                      
system.cpu.dcache.overall_miss_rate::cpu.data     0.004444                      
system.cpu.dcache.overall_miss_rate::total     0.004444                      
system.cpu.dcache.ReadReq_avg_miss_latency::cpu.data        63000                      
system.cpu.dcache.ReadReq_avg_miss_latency::total        63000                      
system.cpu.dcache.WriteReq_avg_miss_latency::cpu.data        63000                      
system.cpu.dcache.WriteReq_avg_miss_latency::total        63000                      
system.cpu.dcache.LoadLockedReq_avg_miss_latency::cpu.data        63000                      
system.cpu.dcache.LoadLockedReq_avg_miss_latency::total        63000                      
system.cpu.dcache.demand_avg_miss_latency::cpu.data        63000                      
system.cpu.dcache.demand_avg_miss_latency::total        63000                      
system.cpu.dcache.overall_avg_miss_latency::cpu.data        63000                      
system.cpu.dcache.overall_avg_miss_latency::total        63000                      
system.cpu.dcache.blocked_cycles::no_mshrs            0                      
system.cpu.dcache.blocked_cycles::no_targets            0                      
system.cpu.dcache.blocked::no_mshrs                 0                      
system.cpu.dcache.blocked::no_targets               0                      
system.cpu.dcache.avg_blocked_cycles::no_mshrs          nan                      
system.cpu.dcache.avg_blocked_cycles::no_targets          nan                      
system.cpu.dcache.ReadReq_mshr_misses::cpu.data          257                      
system.cpu.dcache.ReadReq_mshr_misses::total          257                      
system.cpu.dcache.WriteReq_mshr_misses::cpu.data          225                      
system.cpu.dcache.WriteReq_mshr_misses::total          225                      
system.cpu.dcache.LoadLockedReq_mshr_misses::cpu.data            1                      
system.cpu.dcache.LoadLockedReq_mshr_misses::total            1                      
system.cpu.dcache.demand_mshr_misses::cpu.data          482                      
system.cpu.dcache.demand_mshr_misses::total          482                      
system.cpu.dcache.overall_mshr_misses::cpu.data          482                      
system.cpu.dcache.overall_mshr_misses::total          482                      
system.cpu.dcache.ReadReq_mshr_miss_latency::cpu.data     15934000                      
system.cpu.dcache.ReadReq_mshr_miss_latency::total     15934000                      
system.cpu.dcache.WriteReq_mshr_miss_latency::cpu.data     13950000                      
system.cpu.dcache.WriteReq_mshr_miss_latency::total     13950000                      
system.cpu.dcache.LoadLockedReq_mshr_miss_latency::cpu.data        62000                      
system.cpu.dcache.LoadLockedReq_mshr_miss_latency::total        62000                      
system.cpu.dcache.demand_mshr_miss_latency::cpu.data     29884000                      
system.cpu.dcache.demand_mshr_miss_latency::total     29884000                      
system.cpu.dcache.overall_mshr_miss_latency::cpu.data     29884000                      
system.cpu.dcache.overall_mshr_miss_latency::total     29884000                      
system.cpu.dcache.ReadReq_mshr_miss_rate::cpu.data     0.003810                      
system.cpu.dcache.ReadReq_mshr_miss_rate::total     0.003810                      
system.cpu.dcache.WriteReq_mshr_miss_rate::cpu.data     0.005487                      
system.cpu.dcache.WriteReq_mshr_miss_rate::total     0.005487                      
system.cpu.dcache.LoadLockedReq_mshr_miss_rate::cpu.data     0.001276                      
system.cpu.dcache.LoadLockedReq_mshr_miss_rate::total     0.001276                      
system.cpu.dcache.demand_mshr_miss_rate::cpu.data     0.004444                      
system.cpu.dcache.demand_mshr_miss_rate::total     0.004444                      
system.cpu.dcache.overall_mshr_miss_rate::cpu.data     0.004444                      
system.cpu.dcache.overall_mshr_miss_rate::total     0.004444                      
system.cpu.dcache.ReadReq_avg_mshr_miss_latency::cpu.data        62000                      
system.cpu.dcache.ReadReq_avg_mshr_miss_latency::total        62000                      
system.cpu.dcache.WriteReq_avg_mshr_miss_latency::cpu.data        62000                      
system.cpu.dcache.WriteReq_avg_mshr_miss_latency::total        62000                      
system.cpu.dcache.LoadLockedReq_avg_mshr_miss_latency::cpu.data        62000                      
system.cpu.dcache.LoadLockedReq_avg_mshr_miss_latency::total        62000                      
system.cpu.dcache.demand_avg_mshr_miss_latency::cpu.data        62000                      
system.cpu.dcache.demand_avg_mshr_miss_latency::total        62000                      
system.cpu.dcache.overall_avg_mshr_miss_latency::cpu.data        62000                      
system.cpu.dcache.overall_avg_mshr_miss_latency::total        62000                      
system.cpu.icache.tags.pwrStateResidencyTicks::UNDEFINED    524161500                      
system.cpu.icache.tags.replacements                42                      
system.cpu.icache.tags.tagsinuse           605.964317                      
system.cpu.icache.tags.total_refs              323541                      
system.cpu.icache.tags.sampled_refs               965                      
system.cpu.icache.tags.avg_refs            335.275648                      
system.cpu.icache.tags.warmup_cycle             62500                      
system.cpu.icache.tags.occ_blocks::cpu.inst   605.964317                      
system.cpu.icache.tags.occ_percent::cpu.inst     0.295881                      
system.cpu.icache.tags.occ_percent::total     0.295881                      
system.cpu.icache.tags.occ_task_id_blocks::1024          923                      
system.cpu.icache.tags.age_task_id_blocks_1024::0           40                      
system.cpu.icache.tags.age_task_id_blocks_1024::1           63                      
system.cpu.icache.tags.age_task_id_blocks_1024::2          820                      
system.cpu.icache.tags.occ_task_id_percent::1024     0.450684                      
system.cpu.icache.tags.tag_accesses            649979                      
system.cpu.icache.tags.data_accesses           649979                      
system.cpu.icache.pwrStateResidencyTicks::UNDEFINED    524161500                      
system.cpu.icache.ReadReq_hits::cpu.inst       323541                      
system.cpu.icache.ReadReq_hits::total          323541                      
system.cpu.icache.demand_hits::cpu.inst        323541                      
system.cpu.icache.demand_hits::total           323541                      
system.cpu.icache.overall_hits::cpu.inst       323541                      
system.cpu.icache.overall_hits::total          323541                      
system.cpu.icache.ReadReq_misses::cpu.inst          966                      
system.cpu.icache.ReadReq_misses::total           966                      
system.cpu.icache.demand_misses::cpu.inst          966                      
system.cpu.icache.demand_misses::total            966                      
system.cpu.icache.overall_misses::cpu.inst          966                      
system.cpu.icache.overall_misses::total           966                      
system.cpu.icache.ReadReq_miss_latency::cpu.inst     60646500                      
system.cpu.icache.ReadReq_miss_latency::total     60646500                      
system.cpu.icache.demand_miss_latency::cpu.inst     60646500                      
system.cpu.icache.demand_miss_latency::total     60646500                      
system.cpu.icache.overall_miss_latency::cpu.inst     60646500                      
system.cpu.icache.overall_miss_latency::total     60646500                      
system.cpu.icache.ReadReq_accesses::cpu.inst       324507                      
system.cpu.icache.ReadReq_accesses::total       324507                      
system.cpu.icache.demand_accesses::cpu.inst       324507                      
system.cpu.icache.demand_accesses::total       324507                      
system.cpu.icache.overall_accesses::cpu.inst       324507                      
system.cpu.icache.overall_accesses::total       324507                      
system.cpu.icache.ReadReq_miss_rate::cpu.inst     0.002977                      
system.cpu.icache.ReadReq_miss_rate::total     0.002977                      
system.cpu.icache.demand_miss_rate::cpu.inst     0.002977                      
system.cpu.icache.demand_miss_rate::total     0.002977                      
system.cpu.icache.overall_miss_rate::cpu.inst     0.002977                      
system.cpu.icache.overall_miss_rate::total     0.002977                      
system.cpu.icache.ReadReq_avg_miss_latency::cpu.inst 62781.055901                      
system.cpu.icache.ReadReq_avg_miss_latency::total 62781.055901                      
system.cpu.icache.demand_avg_miss_latency::cpu.inst 62781.055901                      
system.cpu.icache.demand_avg_miss_latency::total 62781.055901                      
system.cpu.icache.overall_avg_miss_latency::cpu.inst 62781.055901                      
system.cpu.icache.overall_avg_miss_latency::total 62781.055901                      
system.cpu.icache.blocked_cycles::no_mshrs            0                      
system.cpu.icache.blocked_cycles::no_targets            0                      
system.cpu.icache.blocked::no_mshrs                 0                      
system.cpu.icache.blocked::no_targets               0                      
system.cpu.icache.avg_blocked_cycles::no_mshrs          nan                      
system.cpu.icache.avg_blocked_cycles::no_targets          nan                      
system.cpu.icache.writebacks::writebacks           42                      
system.cpu.icache.writebacks::total                42                      
system.cpu.icache.ReadReq_mshr_misses::cpu.inst          966                      
system.cpu.icache.ReadReq_mshr_misses::total          966                      
system.cpu.icache.demand_mshr_misses::cpu.inst          966                      
system.cpu.icache.demand_mshr_misses::total          966                      
system.cpu.icache.overall_mshr_misses::cpu.inst          966                      
system.cpu.icache.overall_mshr_misses::total          966                      
system.cpu.icache.ReadReq_mshr_miss_latency::cpu.inst     59681500                      
system.cpu.icache.ReadReq_mshr_miss_latency::total     59681500                      
system.cpu.icache.demand_mshr_miss_latency::cpu.inst     59681500                      
system.cpu.icache.demand_mshr_miss_latency::total     59681500                      
system.cpu.icache.overall_mshr_miss_latency::cpu.inst     59681500                      
system.cpu.icache.overall_mshr_miss_latency::total     59681500                      
system.cpu.icache.ReadReq_mshr_miss_rate::cpu.inst     0.002977                      
system.cpu.icache.ReadReq_mshr_miss_rate::total     0.002977                      
system.cpu.icache.demand_mshr_miss_rate::cpu.inst     0.002977                      
system.cpu.icache.demand_mshr_miss_rate::total     0.002977                      
system.cpu.icache.overall_mshr_miss_rate::cpu.inst     0.002977                      
system.cpu.icache.overall_mshr_miss_rate::total     0.002977                      
system.cpu.icache.ReadReq_avg_mshr_miss_latency::cpu.inst 61782.091097                      
system.cpu.icache.ReadReq_avg_mshr_miss_latency::total 61782.091097                      
system.cpu.icache.demand_avg_mshr_miss_latency::cpu.inst 61782.091097                      
system.cpu.icache.demand_avg_mshr_miss_latency::total 61782.091097                      
system.cpu.icache.overall_avg_mshr_miss_latency::cpu.inst 61782.091097                      
system.cpu.icache.overall_avg_mshr_miss_latency::total 61782.091097                      
system.cpu.l2cache.tags.pwrStateResidencyTicks::UNDEFINED    524161500                      
system.cpu.l2cache.tags.replacements                0                      
system.cpu.l2cache.tags.tagsinuse         1025.041049                      
system.cpu.l2cache.tags.total_refs                 45                      
system.cpu.l2cache.tags.sampled_refs             1445                      
system.cpu.l2cache.tags.avg_refs             0.031142                      
system.cpu.l2cache.tags.warmup_cycle            52000                      
system.cpu.l2cache.tags.occ_blocks::cpu.inst   629.760124                      
system.cpu.l2cache.tags.occ_blocks::cpu.data   395.280925                      
system.cpu.l2cache.tags.occ_percent::cpu.inst     0.019219                      
system.cpu.l2cache.tags.occ_percent::cpu.data     0.012063                      
system.cpu.l2cache.tags.occ_percent::total     0.031282                      
system.cpu.l2cache.tags.occ_task_id_blocks::1024         1445                      
system.cpu.l2cache.tags.age_task_id_blocks_1024::0           54                      
system.cpu.l2cache.tags.age_task_id_blocks_1024::1           70                      
system.cpu.l2cache.tags.age_task_id_blocks_1024::2         1321                      
system.cpu.l2cache.tags.occ_task_id_percent::1024     0.044098                      
system.cpu.l2cache.tags.tag_accesses            13365                      
system.cpu.l2cache.tags.data_accesses           13365                      
system.cpu.l2cache.pwrStateResidencyTicks::UNDEFINED    524161500                      
system.cpu.l2cache.WritebackClean_hits::writebacks           42                      
system.cpu.l2cache.WritebackClean_hits::total           42                      
system.cpu.l2cache.ReadCleanReq_hits::cpu.inst            3                      
system.cpu.l2cache.ReadCleanReq_hits::total            3                      
system.cpu.l2cache.demand_hits::cpu.inst            3                      
system.cpu.l2cache.demand_hits::total               3                      
system.cpu.l2cache.overall_hits::cpu.inst            3                      
system.cpu.l2cache.overall_hits::total              3                      
system.cpu.l2cache.ReadExReq_misses::cpu.data          225                      
system.cpu.l2cache.ReadExReq_misses::total          225                      
system.cpu.l2cache.ReadCleanReq_misses::cpu.inst          962                      
system.cpu.l2cache.ReadCleanReq_misses::total          962                      
system.cpu.l2cache.ReadSharedReq_misses::cpu.data          258                      
system.cpu.l2cache.ReadSharedReq_misses::total          258                      
system.cpu.l2cache.demand_misses::cpu.inst          962                      
system.cpu.l2cache.demand_misses::cpu.data          483                      
system.cpu.l2cache.demand_misses::total          1445                      
system.cpu.l2cache.overall_misses::cpu.inst          962                      
system.cpu.l2cache.overall_misses::cpu.data          483                      
system.cpu.l2cache.overall_misses::total         1445                      
system.cpu.l2cache.ReadExReq_miss_latency::cpu.data     13612500                      
system.cpu.l2cache.ReadExReq_miss_latency::total     13612500                      
system.cpu.l2cache.ReadCleanReq_miss_latency::cpu.inst     58202000                      
system.cpu.l2cache.ReadCleanReq_miss_latency::total     58202000                      
system.cpu.l2cache.ReadSharedReq_miss_latency::cpu.data     15609000                      
system.cpu.l2cache.ReadSharedReq_miss_latency::total     15609000                      
system.cpu.l2cache.demand_miss_latency::cpu.inst     58202000                      
system.cpu.l2cache.demand_miss_latency::cpu.data     29221500                      
system.cpu.l2cache.demand_miss_latency::total     87423500                      
system.cpu.l2cache.overall_miss_latency::cpu.inst     58202000                      
system.cpu.l2cache.overall_miss_latency::cpu.data     29221500                      
system.cpu.l2cache.overall_miss_latency::total     87423500                      
system.cpu.l2cache.WritebackClean_accesses::writebacks           42                      
system.cpu.l2cache.WritebackClean_accesses::total           42                      
system.cpu.l2cache.ReadExReq_accesses::cpu.data          225                      
system.cpu.l2cache.ReadExReq_accesses::total          225                      
system.cpu.l2cache.ReadCleanReq_accesses::cpu.inst          965                      
system.cpu.l2cache.ReadCleanReq_accesses::total          965                      
system.cpu.l2cache.ReadSharedReq_accesses::cpu.data          258                      
system.cpu.l2cache.ReadSharedReq_accesses::total          258                      
system.cpu.l2cache.demand_accesses::cpu.inst          965                      
system.cpu.l2cache.demand_accesses::cpu.data          483                      
system.cpu.l2cache.demand_accesses::total         1448                      
system.cpu.l2cache.overall_accesses::cpu.inst          965                      
system.cpu.l2cache.overall_accesses::cpu.data          483                      
system.cpu.l2cache.overall_accesses::total         1448                      
system.cpu.l2cache.ReadExReq_miss_rate::cpu.data            1                      
system.cpu.l2cache.ReadExReq_miss_rate::total            1                      
system.cpu.l2cache.ReadCleanReq_miss_rate::cpu.inst     0.996891                      
system.cpu.l2cache.ReadCleanReq_miss_rate::total     0.996891                      
system.cpu.l2cache.ReadSharedReq_miss_rate::cpu.data            1                      
system.cpu.l2cache.ReadSharedReq_miss_rate::total            1                      
system.cpu.l2cache.demand_miss_rate::cpu.inst     0.996891                      
system.cpu.l2cache.demand_miss_rate::cpu.data            1                      
system.cpu.l2cache.demand_miss_rate::total     0.997928                      
system.cpu.l2cache.overall_miss_rate::cpu.inst     0.996891                      
system.cpu.l2cache.overall_miss_rate::cpu.data            1                      
system.cpu.l2cache.overall_miss_rate::total     0.997928                      
system.cpu.l2cache.ReadExReq_avg_miss_latency::cpu.data        60500                      
system.cpu.l2cache.ReadExReq_avg_miss_latency::total        60500                      
system.cpu.l2cache.ReadCleanReq_avg_miss_latency::cpu.inst 60501.039501                      
system.cpu.l2cache.ReadCleanReq_avg_miss_latency::total 60501.039501                      
system.cpu.l2cache.ReadSharedReq_avg_miss_latency::cpu.data        60500                      
system.cpu.l2cache.ReadSharedReq_avg_miss_latency::total        60500                      
system.cpu.l2cache.demand_avg_miss_latency::cpu.inst 60501.039501                      
system.cpu.l2cache.demand_avg_miss_latency::cpu.data        60500                      
system.cpu.l2cache.demand_avg_miss_latency::total 60500.692042                      
system.cpu.l2cache.overall_avg_miss_latency::cpu.inst 60501.039501                      
system.cpu.l2cache.overall_avg_miss_latency::cpu.data        60500                      
system.cpu.l2cache.overall_avg_miss_latency::total 60500.692042                      
system.cpu.l2cache.blocked_cycles::no_mshrs            0                      
system.cpu.l2cache.blocked_cycles::no_targets            0                      
system.cpu.l2cache.blocked::no_mshrs                0                      
system.cpu.l2cache.blocked::no_targets              0                      
system.cpu.l2cache.avg_blocked_cycles::no_mshrs          nan                      
system.cpu.l2cache.avg_blocked_cycles::no_targets          nan                      
system.cpu.l2cache.ReadExReq_mshr_misses::cpu.data          225                      
system.cpu.l2cache.ReadExReq_mshr_misses::total          225                      
system.cpu.l2cache.ReadCleanReq_mshr_misses::cpu.inst          962                      
system.cpu.l2cache.ReadCleanReq_mshr_misses::total          962                      
system.cpu.l2cache.ReadSharedReq_mshr_misses::cpu.data          258                      
system.cpu.l2cache.ReadSharedReq_mshr_misses::total          258                      
system.cpu.l2cache.demand_mshr_misses::cpu.inst          962                      
system.cpu.l2cache.demand_mshr_misses::cpu.data          483                      
system.cpu.l2cache.demand_mshr_misses::total         1445                      
system.cpu.l2cache.overall_mshr_misses::cpu.inst          962                      
system.cpu.l2cache.overall_mshr_misses::cpu.data          483                      
system.cpu.l2cache.overall_mshr_misses::total         1445                      
system.cpu.l2cache.ReadExReq_mshr_miss_latency::cpu.data     11362500                      
system.cpu.l2cache.ReadExReq_mshr_miss_latency::total     11362500                      
system.cpu.l2cache.ReadCleanReq_mshr_miss_latency::cpu.inst     48582000                      
system.cpu.l2cache.ReadCleanReq_mshr_miss_latency::total     48582000                      
system.cpu.l2cache.ReadSharedReq_mshr_miss_latency::cpu.data     13029000                      
system.cpu.l2cache.ReadSharedReq_mshr_miss_latency::total     13029000                      
system.cpu.l2cache.demand_mshr_miss_latency::cpu.inst     48582000                      
system.cpu.l2cache.demand_mshr_miss_latency::cpu.data     24391500                      
system.cpu.l2cache.demand_mshr_miss_latency::total     72973500                      
system.cpu.l2cache.overall_mshr_miss_latency::cpu.inst     48582000                      
system.cpu.l2cache.overall_mshr_miss_latency::cpu.data     24391500                      
system.cpu.l2cache.overall_mshr_miss_latency::total     72973500                      
system.cpu.l2cache.ReadExReq_mshr_miss_rate::cpu.data            1                      
system.cpu.l2cache.ReadExReq_mshr_miss_rate::total            1                      
system.cpu.l2cache.ReadCleanReq_mshr_miss_rate::cpu.inst     0.996891                      
system.cpu.l2cache.ReadCleanReq_mshr_miss_rate::total     0.996891                      
system.cpu.l2cache.ReadSharedReq_mshr_miss_rate::cpu.data            1                      
system.cpu.l2cache.ReadSharedReq_mshr_miss_rate::total            1                      
system.cpu.l2cache.demand_mshr_miss_rate::cpu.inst     0.996891                      
system.cpu.l2cache.demand_mshr_miss_rate::cpu.data            1                      
system.cpu.l2cache.demand_mshr_miss_rate::total     0.997928                      
system.cpu.l2cache.overall_mshr_miss_rate::cpu.inst     0.996891                      
system.cpu.l2cache.overall_mshr_miss_rate::cpu.data            1                      
system.cpu.l2cache.overall_mshr_miss_rate::total     0.997928                      
system.cpu.l2cache.ReadExReq_avg_mshr_miss_latency::cpu.data        50500                      
system.cpu.l2cache.ReadExReq_avg_mshr_miss_latency::total        50500                      
system.cpu.l2cache.ReadCleanReq_avg_mshr_miss_latency::cpu.inst 50501.039501                      
system.cpu.l2cache.ReadCleanReq_avg_mshr_miss_latency::total 50501.039501                      
system.cpu.l2cache.ReadSharedReq_avg_mshr_miss_latency::cpu.data        50500                      
system.cpu.l2cache.ReadSharedReq_avg_mshr_miss_latency::total        50500                      
system.cpu.l2cache.demand_avg_mshr_miss_latency::cpu.inst 50501.039501                      
system.cpu.l2cache.demand_avg_mshr_miss_latency::cpu.data        50500                      
system.cpu.l2cache.demand_avg_mshr_miss_latency::total 50500.692042                      
system.cpu.l2cache.overall_avg_mshr_miss_latency::cpu.inst 50501.039501                      
system.cpu.l2cache.overall_avg_mshr_miss_latency::cpu.data        50500                      
system.cpu.l2cache.overall_avg_mshr_miss_latency::total 50500.692042                      
system.cpu.toL2Bus.snoop_filter.tot_requests         1490                      
system.cpu.toL2Bus.snoop_filter.hit_single_requests           42                      
system.cpu.toL2Bus.snoop_filter.hit_multi_requests            0                      
system.cpu.toL2Bus.snoop_filter.tot_snoops            0                      
system.cpu.toL2Bus.snoop_filter.hit_single_snoops            0                      
system.cpu.toL2Bus.snoop_filter.hit_multi_snoops            0                      
system.cpu.toL2Bus.pwrStateResidencyTicks::UNDEFINED    524161500                      
system.cpu.toL2Bus.trans_dist::ReadResp          1223                      
system.cpu.toL2Bus.trans_dist::WritebackClean           42                      
system.cpu.toL2Bus.trans_dist::ReadExReq          225                      
system.cpu.toL2Bus.trans_dist::ReadExResp          225                      
system.cpu.toL2Bus.trans_dist::ReadCleanReq          965                      
system.cpu.toL2Bus.trans_dist::ReadSharedReq          258                      
system.cpu.toL2Bus.pkt_count_system.cpu.icache.mem_side::system.cpu.l2cache.cpu_side         1972                      
system.cpu.toL2Bus.pkt_count_system.cpu.dcache.mem_side::system.cpu.l2cache.cpu_side          966                      
system.cpu.toL2Bus.pkt_count::total              2938                      
system.cpu.toL2Bus.pkt_size_system.cpu.icache.mem_side::system.cpu.l2cache.cpu_side        64448                      
system.cpu.toL2Bus.pkt_size_system.cpu.dcache.mem_side::system.cpu.l2cache.cpu_side        30912                      
system.cpu.toL2Bus.pkt_size::total              95360                      
system.cpu.toL2Bus.snoops                           0                      
system.cpu.toL2Bus.snoopTraffic                     0                      
system.cpu.toL2Bus.snoop_fanout::samples         1448                      
system.cpu.toL2Bus.snoop_fanout::mean               0                      
system.cpu.toL2Bus.snoop_fanout::stdev              0                      
system.cpu.toL2Bus.snoop_fanout::underflows            0      0.00%      0.00%
system.cpu.toL2Bus.snoop_fanout::0               1448    100.00%    100.00%
system.cpu.toL2Bus.snoop_fanout::1                  0      0.00%    100.00%
system.cpu.toL2Bus.snoop_fanout::2                  0      0.00%    100.00%
system.cpu.toL2Bus.snoop_fanout::overflows            0      0.00%    100.00%
system.cpu.toL2Bus.snoop_fanout::min_value            0                      
system.cpu.toL2Bus.snoop_fanout::max_value            0                      
system.cpu.toL2Bus.snoop_fanout::total           1448                      
system.cpu.toL2Bus.reqLayer0.occupancy         787000                      
system.cpu.toL2Bus.reqLayer0.utilization          0.2                      
system.cpu.toL2Bus.respLayer0.occupancy       1447500                      
system.cpu.toL2Bus.respLayer0.utilization          0.3                      
system.cpu.toL2Bus.respLayer1.occupancy        724500                      
system.cpu.toL2Bus.respLayer1.utilization          0.1                      
system.membus.snoop_filter.tot_requests          1445                      
system.membus.snoop_filter.hit_single_requests            0                      
system.membus.snoop_filter.hit_multi_requests            0                      
system.membus.snoop_filter.tot_snoops               0                      
system.membus.snoop_filter.hit_single_snoops            0                      
system.membus.snoop_filter.hit_multi_snoops            0                      
system.membus.pwrStateResidencyTicks::UNDEFINED    524161500                      
system.membus.trans_dist::ReadResp               1220                      
system.membus.trans_dist::ReadExReq               225                      
system.membus.trans_dist::ReadExResp              225                      
system.membus.trans_dist::ReadSharedReq          1220                      
system.membus.pkt_count_system.cpu.l2cache.mem_side::system.physmem.port         2890                      
system.membus.pkt_count::total                   2890                      
system.membus.pkt_size_system.cpu.l2cache.mem_side::system.physmem.port        92480                      
system.membus.pkt_size::total                   92480                      
system.membus.snoops                                0                      
system.membus.snoopTraffic                          0                      
system.membus.snoop_fanout::samples              1445                      
system.membus.snoop_fanout::mean                    0                      
system.membus.snoop_fanout::stdev                   0                      
system.membus.snoop_fanout::underflows              0      0.00%      0.00%
system.membus.snoop_fanout::0                    1445    100.00%    100.00%
system.membus.snoop_fanout::1                       0      0.00%    100.00%
system.membus.snoop_fanout::overflows               0      0.00%    100.00%
system.membus.snoop_fanout::min_value               0                      
system.membus.snoop_fanout::max_value               0                      
system.membus.snoop_fanout::total                1445                      
system.membus.reqLayer0.occupancy             1446000                      
system.membus.reqLayer0.utilization               0.3                      
system.membus.respLayer1.occupancy            7225000                      
system.membus.respLayer1.utilization              1.4                      

---------- End Simulation Statistics   ----------
