
---------- Begin Simulation Statistics ----------
sim_seconds                                  0.000098                      
sim_ticks                                       97997                      
final_tick                                      97997                      
sim_freq                                   1000000000                      
host_inst_rate                                  44058                      
host_op_rate                                    44122                      
host_tick_rate                                 775787                      
host_mem_usage                                 552376                      
host_seconds                                     0.13                      
sim_insts                                        5562                      
sim_ops                                          5571                      
system.voltage_domain.voltage                       1                      
system.clk_domain.clock                             1                      
system.mem_ctrls.pwrStateResidencyTicks::UNDEFINED        97997                      
system.mem_ctrls.bytes_read::ruby.dir_cntrl0        89216                      
system.mem_ctrls.bytes_read::total              89216                      
system.mem_ctrls.bytes_written::ruby.dir_cntrl0        88960                      
system.mem_ctrls.bytes_written::total           88960                      
system.mem_ctrls.num_reads::ruby.dir_cntrl0         1394                      
system.mem_ctrls.num_reads::total                1394                      
system.mem_ctrls.num_writes::ruby.dir_cntrl0         1390                      
system.mem_ctrls.num_writes::total               1390                      
system.mem_ctrls.bw_read::ruby.dir_cntrl0    910395216                      
system.mem_ctrls.bw_read::total             910395216                      
system.mem_ctrls.bw_write::ruby.dir_cntrl0    907782891                      
system.mem_ctrls.bw_write::total            907782891                      
system.mem_ctrls.bw_total::ruby.dir_cntrl0   1818178107                      
system.mem_ctrls.bw_total::total           1818178107                      
system.mem_ctrls.readReqs                        1394                      
system.mem_ctrls.writeReqs                       1390                      
system.mem_ctrls.readBursts                      1394                      
system.mem_ctrls.writeBursts                     1390                      
system.mem_ctrls.bytesReadDRAM                  49280                      
system.mem_ctrls.bytesReadWrQ                   39936                      
system.mem_ctrls.bytesWritten                   49216                      
system.mem_ctrls.bytesReadSys                   89216                      
system.mem_ctrls.bytesWrittenSys                88960                      
system.mem_ctrls.servicedByWrQ                    624                      
system.mem_ctrls.mergedWrBursts                   589                      
system.mem_ctrls.neitherReadNorWriteReqs            0                      
system.mem_ctrls.perBankRdBursts::0                47                      
system.mem_ctrls.perBankRdBursts::1                 0                      
system.mem_ctrls.perBankRdBursts::2                47                      
system.mem_ctrls.perBankRdBursts::3                16                      
system.mem_ctrls.perBankRdBursts::4                73                      
system.mem_ctrls.perBankRdBursts::5               182                      
system.mem_ctrls.perBankRdBursts::6               156                      
system.mem_ctrls.perBankRdBursts::7               145                      
system.mem_ctrls.perBankRdBursts::8                62                      
system.mem_ctrls.perBankRdBursts::9                34                      
system.mem_ctrls.perBankRdBursts::10                0                      
system.mem_ctrls.perBankRdBursts::11                2                      
system.mem_ctrls.perBankRdBursts::12                2                      
system.mem_ctrls.perBankRdBursts::13                3                      
system.mem_ctrls.perBankRdBursts::14                1                      
system.mem_ctrls.perBankRdBursts::15                0                      
system.mem_ctrls.perBankWrBursts::0                49                      
system.mem_ctrls.perBankWrBursts::1                 0                      
system.mem_ctrls.perBankWrBursts::2                46                      
system.mem_ctrls.perBankWrBursts::3                14                      
system.mem_ctrls.perBankWrBursts::4                62                      
system.mem_ctrls.perBankWrBursts::5               182                      
system.mem_ctrls.perBankWrBursts::6               159                      
system.mem_ctrls.perBankWrBursts::7               151                      
system.mem_ctrls.perBankWrBursts::8                64                      
system.mem_ctrls.perBankWrBursts::9                34                      
system.mem_ctrls.perBankWrBursts::10                0                      
system.mem_ctrls.perBankWrBursts::11                2                      
system.mem_ctrls.perBankWrBursts::12                2                      
system.mem_ctrls.perBankWrBursts::13                3                      
system.mem_ctrls.perBankWrBursts::14                1                      
system.mem_ctrls.perBankWrBursts::15                0                      
system.mem_ctrls.numRdRetry                         0                      
system.mem_ctrls.numWrRetry                         0                      
system.mem_ctrls.totGap                         97929                      
system.mem_ctrls.readPktSize::0                     0                      
system.mem_ctrls.readPktSize::1                     0                      
system.mem_ctrls.readPktSize::2                     0                      
system.mem_ctrls.readPktSize::3                     0                      
system.mem_ctrls.readPktSize::4                     0                      
system.mem_ctrls.readPktSize::5                     0                      
system.mem_ctrls.readPktSize::6                  1394                      
system.mem_ctrls.writePktSize::0                    0                      
system.mem_ctrls.writePktSize::1                    0                      
system.mem_ctrls.writePktSize::2                    0                      
system.mem_ctrls.writePktSize::3                    0                      
system.mem_ctrls.writePktSize::4                    0                      
system.mem_ctrls.writePktSize::5                    0                      
system.mem_ctrls.writePktSize::6                 1390                      
system.mem_ctrls.rdQLenPdf::0                     770                      
system.mem_ctrls.rdQLenPdf::1                       0                      
system.mem_ctrls.rdQLenPdf::2                       0                      
system.mem_ctrls.rdQLenPdf::3                       0                      
system.mem_ctrls.rdQLenPdf::4                       0                      
system.mem_ctrls.rdQLenPdf::5                       0                      
system.mem_ctrls.rdQLenPdf::6                       0                      
system.mem_ctrls.rdQLenPdf::7                       0                      
system.mem_ctrls.rdQLenPdf::8                       0                      
system.mem_ctrls.rdQLenPdf::9                       0                      
system.mem_ctrls.rdQLenPdf::10                      0                      
system.mem_ctrls.rdQLenPdf::11                      0                      
system.mem_ctrls.rdQLenPdf::12                      0                      
system.mem_ctrls.rdQLenPdf::13                      0                      
system.mem_ctrls.rdQLenPdf::14                      0                      
system.mem_ctrls.rdQLenPdf::15                      0                      
system.mem_ctrls.rdQLenPdf::16                      0                      
system.mem_ctrls.rdQLenPdf::17                      0                      
system.mem_ctrls.rdQLenPdf::18                      0                      
system.mem_ctrls.rdQLenPdf::19                      0                      
system.mem_ctrls.rdQLenPdf::20                      0                      
system.mem_ctrls.rdQLenPdf::21                      0                      
system.mem_ctrls.rdQLenPdf::22                      0                      
system.mem_ctrls.rdQLenPdf::23                      0                      
system.mem_ctrls.rdQLenPdf::24                      0                      
system.mem_ctrls.rdQLenPdf::25                      0                      
system.mem_ctrls.rdQLenPdf::26                      0                      
system.mem_ctrls.rdQLenPdf::27                      0                      
system.mem_ctrls.rdQLenPdf::28                      0                      
system.mem_ctrls.rdQLenPdf::29                      0                      
system.mem_ctrls.rdQLenPdf::30                      0                      
system.mem_ctrls.rdQLenPdf::31                      0                      
system.mem_ctrls.wrQLenPdf::0                       1                      
system.mem_ctrls.wrQLenPdf::1                       1                      
system.mem_ctrls.wrQLenPdf::2                       1                      
system.mem_ctrls.wrQLenPdf::3                       1                      
system.mem_ctrls.wrQLenPdf::4                       1                      
system.mem_ctrls.wrQLenPdf::5                       1                      
system.mem_ctrls.wrQLenPdf::6                       1                      
system.mem_ctrls.wrQLenPdf::7                       1                      
system.mem_ctrls.wrQLenPdf::8                       1                      
system.mem_ctrls.wrQLenPdf::9                       1                      
system.mem_ctrls.wrQLenPdf::10                      1                      
system.mem_ctrls.wrQLenPdf::11                      1                      
system.mem_ctrls.wrQLenPdf::12                      1                      
system.mem_ctrls.wrQLenPdf::13                      1                      
system.mem_ctrls.wrQLenPdf::14                      1                      
system.mem_ctrls.wrQLenPdf::15                      7                      
system.mem_ctrls.wrQLenPdf::16                      8                      
system.mem_ctrls.wrQLenPdf::17                     42                      
system.mem_ctrls.wrQLenPdf::18                     48                      
system.mem_ctrls.wrQLenPdf::19                     48                      
system.mem_ctrls.wrQLenPdf::20                     50                      
system.mem_ctrls.wrQLenPdf::21                     54                      
system.mem_ctrls.wrQLenPdf::22                     50                      
system.mem_ctrls.wrQLenPdf::23                     48                      
system.mem_ctrls.wrQLenPdf::24                     48                      
system.mem_ctrls.wrQLenPdf::25                     48                      
system.mem_ctrls.wrQLenPdf::26                     48                      
system.mem_ctrls.wrQLenPdf::27                     48                      
system.mem_ctrls.wrQLenPdf::28                     48                      
system.mem_ctrls.wrQLenPdf::29                     48                      
system.mem_ctrls.wrQLenPdf::30                     48                      
system.mem_ctrls.wrQLenPdf::31                     48                      
system.mem_ctrls.wrQLenPdf::32                     47                      
system.mem_ctrls.wrQLenPdf::33                      0                      
system.mem_ctrls.wrQLenPdf::34                      0                      
system.mem_ctrls.wrQLenPdf::35                      0                      
system.mem_ctrls.wrQLenPdf::36                      0                      
system.mem_ctrls.wrQLenPdf::37                      0                      
system.mem_ctrls.wrQLenPdf::38                      0                      
system.mem_ctrls.wrQLenPdf::39                      0                      
system.mem_ctrls.wrQLenPdf::40                      0                      
system.mem_ctrls.wrQLenPdf::41                      0                      
system.mem_ctrls.wrQLenPdf::42                      0                      
system.mem_ctrls.wrQLenPdf::43                      0                      
system.mem_ctrls.wrQLenPdf::44                      0                      
system.mem_ctrls.wrQLenPdf::45                      0                      
system.mem_ctrls.wrQLenPdf::46                      0                      
system.mem_ctrls.wrQLenPdf::47                      0                      
system.mem_ctrls.wrQLenPdf::48                      0                      
system.mem_ctrls.wrQLenPdf::49                      0                      
system.mem_ctrls.wrQLenPdf::50                      0                      
system.mem_ctrls.wrQLenPdf::51                      0                      
system.mem_ctrls.wrQLenPdf::52                      0                      
system.mem_ctrls.wrQLenPdf::53                      0                      
system.mem_ctrls.wrQLenPdf::54                      0                      
system.mem_ctrls.wrQLenPdf::55                      0                      
system.mem_ctrls.wrQLenPdf::56                      0                      
system.mem_ctrls.wrQLenPdf::57                      0                      
system.mem_ctrls.wrQLenPdf::58                      0                      
system.mem_ctrls.wrQLenPdf::59                      0                      
system.mem_ctrls.wrQLenPdf::60                      0                      
system.mem_ctrls.wrQLenPdf::61                      0                      
system.mem_ctrls.wrQLenPdf::62                      0                      
system.mem_ctrls.wrQLenPdf::63                      0                      
system.mem_ctrls.bytesPerActivate::samples          264                      
system.mem_ctrls.bytesPerActivate::mean    364.606061                      
system.mem_ctrls.bytesPerActivate::gmean   237.777492                      
system.mem_ctrls.bytesPerActivate::stdev   327.807598                      
system.mem_ctrls.bytesPerActivate::0-127           56     21.21%     21.21%
system.mem_ctrls.bytesPerActivate::128-255           74     28.03%     49.24%
system.mem_ctrls.bytesPerActivate::256-383           42     15.91%     65.15%
system.mem_ctrls.bytesPerActivate::384-511           19      7.20%     72.35%
system.mem_ctrls.bytesPerActivate::512-639            8      3.03%     75.38%
system.mem_ctrls.bytesPerActivate::640-767           17      6.44%     81.82%
system.mem_ctrls.bytesPerActivate::768-895            8      3.03%     84.85%
system.mem_ctrls.bytesPerActivate::896-1023           10      3.79%     88.64%
system.mem_ctrls.bytesPerActivate::1024-1151           30     11.36%    100.00%
system.mem_ctrls.bytesPerActivate::total          264                      
system.mem_ctrls.rdPerTurnAround::samples           47                      
system.mem_ctrls.rdPerTurnAround::mean      16.063830                      
system.mem_ctrls.rdPerTurnAround::gmean     15.907293                      
system.mem_ctrls.rdPerTurnAround::stdev      2.753687                      
system.mem_ctrls.rdPerTurnAround::12-13             2      4.26%      4.26%
system.mem_ctrls.rdPerTurnAround::14-15            17     36.17%     40.43%
system.mem_ctrls.rdPerTurnAround::16-17            25     53.19%     93.62%
system.mem_ctrls.rdPerTurnAround::18-19             2      4.26%     97.87%
system.mem_ctrls.rdPerTurnAround::32-33             1      2.13%    100.00%
system.mem_ctrls.rdPerTurnAround::total            47                      
system.mem_ctrls.wrPerTurnAround::samples           47                      
system.mem_ctrls.wrPerTurnAround::mean      16.361702                      
system.mem_ctrls.wrPerTurnAround::gmean     16.334160                      
system.mem_ctrls.wrPerTurnAround::stdev      1.009208                      
system.mem_ctrls.wrPerTurnAround::16               41     87.23%     87.23%
system.mem_ctrls.wrPerTurnAround::18                3      6.38%     93.62%
system.mem_ctrls.wrPerTurnAround::19                1      2.13%     95.74%
system.mem_ctrls.wrPerTurnAround::20                2      4.26%    100.00%
system.mem_ctrls.wrPerTurnAround::total            47                      
system.mem_ctrls.totQLat                        14919                      
system.mem_ctrls.totMemAccLat                   29549                      
system.mem_ctrls.totBusLat                       3850                      
system.mem_ctrls.avgQLat                        19.38                      
system.mem_ctrls.avgBusLat                       5.00                      
system.mem_ctrls.avgMemAccLat                   38.38                      
system.mem_ctrls.avgRdBW                       502.87                      
system.mem_ctrls.avgWrBW                       502.22                      
system.mem_ctrls.avgRdBWSys                    910.40                      
system.mem_ctrls.avgWrBWSys                    907.78                      
system.mem_ctrls.peakBW                      12800.00                      
system.mem_ctrls.busUtil                         7.85                      
system.mem_ctrls.busUtilRead                     3.93                      
system.mem_ctrls.busUtilWrite                    3.92                      
system.mem_ctrls.avgRdQLen                       1.00                      
system.mem_ctrls.avgWrQLen                      25.57                      
system.mem_ctrls.readRowHits                      548                      
system.mem_ctrls.writeRowHits                     719                      
system.mem_ctrls.readRowHitRate                 71.17                      
system.mem_ctrls.writeRowHitRate                89.76                      
system.mem_ctrls.avgGap                         35.18                      
system.mem_ctrls.pageHitRate                    80.65                      
system.mem_ctrls_0.actEnergy                  1627920                      
system.mem_ctrls_0.preEnergy                   857808                      
system.mem_ctrls_0.readEnergy                 7608384                      
system.mem_ctrls_0.writeEnergy                5537376                      
system.mem_ctrls_0.refreshEnergy         7375680.000000                      
system.mem_ctrls_0.actBackEnergy             13799928                      
system.mem_ctrls_0.preBackEnergy               172032                      
system.mem_ctrls_0.actPowerDownEnergy        28220016                      
system.mem_ctrls_0.prePowerDownEnergy         2073600                      
system.mem_ctrls_0.selfRefreshEnergy                0                      
system.mem_ctrls_0.totalEnergy               67272744                      
system.mem_ctrls_0.averagePower            686.477586                      
system.mem_ctrls_0.totalIdleTime                67009                      
system.mem_ctrls_0.memoryStateTime::IDLE           70                      
system.mem_ctrls_0.memoryStateTime::REF          3120                      
system.mem_ctrls_0.memoryStateTime::SREF            0                      
system.mem_ctrls_0.memoryStateTime::PRE_PDN         5400                      
system.mem_ctrls_0.memoryStateTime::ACT         27521                      
system.mem_ctrls_0.memoryStateTime::ACT_PDN        61886                      
system.mem_ctrls_1.actEnergy                   314160                      
system.mem_ctrls_1.preEnergy                   162288                      
system.mem_ctrls_1.readEnergy                 1188096                      
system.mem_ctrls_1.writeEnergy                 885312                      
system.mem_ctrls_1.refreshEnergy         7375680.000000                      
system.mem_ctrls_1.actBackEnergy             12430560                      
system.mem_ctrls_1.preBackEnergy               530304                      
system.mem_ctrls_1.actPowerDownEnergy        23035752                      
system.mem_ctrls_1.prePowerDownEnergy         7234176                      
system.mem_ctrls_1.selfRefreshEnergy                0                      
system.mem_ctrls_1.totalEnergy               53156328                      
system.mem_ctrls_1.averagePower            542.428115                      
system.mem_ctrls_1.totalIdleTime                69323                      
system.mem_ctrls_1.memoryStateTime::IDLE         1017                      
system.mem_ctrls_1.memoryStateTime::REF          3120                      
system.mem_ctrls_1.memoryStateTime::SREF            0                      
system.mem_ctrls_1.memoryStateTime::PRE_PDN        18839                      
system.mem_ctrls_1.memoryStateTime::ACT         24504                      
system.mem_ctrls_1.memoryStateTime::ACT_PDN        50517                      
system.pwrStateResidencyTicks::UNDEFINED        97997                      
system.cpu.clk_domain.clock                         1                      
system.cpu.dtb.read_hits                            0                      
system.cpu.dtb.read_misses                          0                      
system.cpu.dtb.read_accesses                        0                      
system.cpu.dtb.write_hits                           0                      
system.cpu.dtb.write_misses                         0                      
system.cpu.dtb.write_accesses                       0                      
system.cpu.dtb.hits                                 0                      
system.cpu.dtb.misses                               0                      
system.cpu.dtb.accesses                             0                      
system.cpu.itb.read_hits                            0                      
system.cpu.itb.read_misses                          0                      
system.cpu.itb.read_accesses                        0                      
system.cpu.itb.write_hits                           0                      
system.cpu.itb.write_misses                         0                      
system.cpu.itb.write_accesses                       0                      
system.cpu.itb.hits                                 0                      
system.cpu.itb.misses                               0                      
system.cpu.itb.accesses                             0                      
system.cpu.workload.numSyscalls                     9                      
system.cpu.pwrStateResidencyTicks::ON           97997                      
system.cpu.numCycles                            97997                      
system.cpu.numWorkItemsStarted                      0                      
system.cpu.numWorkItemsCompleted                    0                      
system.cpu.committedInsts                        5562                      
system.cpu.committedOps                          5571                      
system.cpu.num_int_alu_accesses                  5508                      
system.cpu.num_fp_alu_accesses                     12                      
system.cpu.num_vec_alu_accesses                     0                      
system.cpu.num_func_calls                         282                      
system.cpu.num_conditional_control_insts          916                      
system.cpu.num_int_insts                         5508                      
system.cpu.num_fp_insts                            12                      
system.cpu.num_vec_insts                            0                      
system.cpu.num_int_register_reads                7052                      
system.cpu.num_int_register_writes               3420                      
system.cpu.num_fp_register_reads                   12                      
system.cpu.num_fp_register_writes                   0                      
system.cpu.num_vec_register_reads                   0                      
system.cpu.num_vec_register_writes                  0                      
system.cpu.num_mem_refs                          2166                      
system.cpu.num_load_insts                        1084                      
system.cpu.num_store_insts                       1082                      
system.cpu.num_idle_cycles                          0                      
system.cpu.num_busy_cycles                      97997                      
system.cpu.not_idle_fraction                        1                      
system.cpu.idle_fraction                            0                      
system.cpu.Branches                              1198                      
system.cpu.op_class::No_OpClass                    10      0.18%      0.18%
system.cpu.op_class::IntAlu                      3398     60.90%     61.08%
system.cpu.op_class::IntMult                        2      0.04%     61.11%
system.cpu.op_class::IntDiv                         4      0.07%     61.18%
system.cpu.op_class::FloatAdd                       0      0.00%     61.18%
system.cpu.op_class::FloatCmp                       0      0.00%     61.18%
system.cpu.op_class::FloatCvt                       0      0.00%     61.18%
system.cpu.op_class::FloatMult                      0      0.00%     61.18%
system.cpu.op_class::FloatMultAcc                   0      0.00%     61.18%
system.cpu.op_class::FloatDiv                       0      0.00%     61.18%
system.cpu.op_class::FloatMisc                      0      0.00%     61.18%
system.cpu.op_class::FloatSqrt                      0      0.00%     61.18%
system.cpu.op_class::SimdAdd                        0      0.00%     61.18%
system.cpu.op_class::SimdAddAcc                     0      0.00%     61.18%
system.cpu.op_class::SimdAlu                        0      0.00%     61.18%
system.cpu.op_class::SimdCmp                        0      0.00%     61.18%
system.cpu.op_class::SimdCvt                        0      0.00%     61.18%
system.cpu.op_class::SimdMisc                       0      0.00%     61.18%
system.cpu.op_class::SimdMult                       0      0.00%     61.18%
system.cpu.op_class::SimdMultAcc                    0      0.00%     61.18%
system.cpu.op_class::SimdShift                      0      0.00%     61.18%
system.cpu.op_class::SimdShiftAcc                   0      0.00%     61.18%
system.cpu.op_class::SimdSqrt                       0      0.00%     61.18%
system.cpu.op_class::SimdFloatAdd                   0      0.00%     61.18%
system.cpu.op_class::SimdFloatAlu                   0      0.00%     61.18%
system.cpu.op_class::SimdFloatCmp                   0      0.00%     61.18%
system.cpu.op_class::SimdFloatCvt                   0      0.00%     61.18%
system.cpu.op_class::SimdFloatDiv                   0      0.00%     61.18%
system.cpu.op_class::SimdFloatMisc                  0      0.00%     61.18%
system.cpu.op_class::SimdFloatMult                  0      0.00%     61.18%
system.cpu.op_class::SimdFloatMultAcc               0      0.00%     61.18%
system.cpu.op_class::SimdFloatSqrt                  0      0.00%     61.18%
system.cpu.op_class::MemRead                     1084     19.43%     80.61%
system.cpu.op_class::MemWrite                    1070     19.18%     99.78%
system.cpu.op_class::FloatMemRead                   0      0.00%     99.78%
system.cpu.op_class::FloatMemWrite                 12      0.22%    100.00%
system.cpu.op_class::IprAccess                      0      0.00%    100.00%
system.cpu.op_class::InstPrefetch                   0      0.00%    100.00%
system.cpu.op_class::total                       5580                      
system.ruby.clk_domain.clock                        1                      
system.ruby.pwrStateResidencyTicks::UNDEFINED        97997                      
system.ruby.delayHist::bucket_size                  1                      
system.ruby.delayHist::max_bucket                   9                      
system.ruby.delayHist::samples                   2784                      
system.ruby.delayHist                    |        2784    100.00%    100.00% |           0      0.00%    100.00% |           0      0.00%    100.00% |           0      0.00%    100.00% |           0      0.00%    100.00% |           0      0.00%    100.00% |           0      0.00%    100.00% |           0      0.00%    100.00% |           0      0.00%    100.00% |           0      0.00%    100.00%
system.ruby.delayHist::total                     2784                      
system.ruby.outstanding_req_hist_seqr::bucket_size            1                      
system.ruby.outstanding_req_hist_seqr::max_bucket            9                      
system.ruby.outstanding_req_hist_seqr::samples         8776                      
system.ruby.outstanding_req_hist_seqr::mean            1                      
system.ruby.outstanding_req_hist_seqr::gmean            1                      
system.ruby.outstanding_req_hist_seqr    |           0      0.00%      0.00% |        8776    100.00%    100.00% |           0      0.00%    100.00% |           0      0.00%    100.00% |           0      0.00%    100.00% |           0      0.00%    100.00% |           0      0.00%    100.00% |           0      0.00%    100.00% |           0      0.00%    100.00% |           0      0.00%    100.00%
system.ruby.outstanding_req_hist_seqr::total         8776                      
system.ruby.latency_hist_seqr::bucket_size           64                      
system.ruby.latency_hist_seqr::max_bucket          639                      
system.ruby.latency_hist_seqr::samples           8775                      
system.ruby.latency_hist_seqr::mean         10.167749                      
system.ruby.latency_hist_seqr::gmean         1.871269                      
system.ruby.latency_hist_seqr::stdev        25.800066                      
system.ruby.latency_hist_seqr            |        8024     91.44%     91.44% |         702      8.00%     99.44% |          35      0.40%     99.84% |           4      0.05%     99.89% |           5      0.06%     99.94% |           4      0.05%     99.99% |           0      0.00%     99.99% |           1      0.01%    100.00% |           0      0.00%    100.00% |           0      0.00%    100.00%
system.ruby.latency_hist_seqr::total             8775                      
system.ruby.hit_latency_hist_seqr::bucket_size            1                      
system.ruby.hit_latency_hist_seqr::max_bucket            9                      
system.ruby.hit_latency_hist_seqr::samples         7381                      
system.ruby.hit_latency_hist_seqr::mean             1                      
system.ruby.hit_latency_hist_seqr::gmean            1                      
system.ruby.hit_latency_hist_seqr        |           0      0.00%      0.00% |        7381    100.00%    100.00% |           0      0.00%    100.00% |           0      0.00%    100.00% |           0      0.00%    100.00% |           0      0.00%    100.00% |           0      0.00%    100.00% |           0      0.00%    100.00% |           0      0.00%    100.00% |           0      0.00%    100.00%
system.ruby.hit_latency_hist_seqr::total         7381                      
system.ruby.miss_latency_hist_seqr::bucket_size           64                      
system.ruby.miss_latency_hist_seqr::max_bucket          639                      
system.ruby.miss_latency_hist_seqr::samples         1394                      
system.ruby.miss_latency_hist_seqr::mean    58.709469                      
system.ruby.miss_latency_hist_seqr::gmean    51.647809                      
system.ruby.miss_latency_hist_seqr::stdev    37.273550                      
system.ruby.miss_latency_hist_seqr       |         643     46.13%     46.13% |         702     50.36%     96.48% |          35      2.51%     99.00% |           4      0.29%     99.28% |           5      0.36%     99.64% |           4      0.29%     99.93% |           0      0.00%     99.93% |           1      0.07%    100.00% |           0      0.00%    100.00% |           0      0.00%    100.00%
system.ruby.miss_latency_hist_seqr::total         1394                      
system.ruby.Directory.incomplete_times_seqr         1393                      
system.ruby.dir_cntrl0.forwardFromDir.avg_buf_msgs     0.014184                      
system.ruby.dir_cntrl0.forwardFromDir.avg_stall_time     0.996428                      
system.ruby.dir_cntrl0.requestToDir.avg_buf_msgs     0.028409                      
system.ruby.dir_cntrl0.requestToDir.avg_stall_time    11.758567                      
system.ruby.dir_cntrl0.responseFromDir.avg_buf_msgs     0.014225                      
system.ruby.dir_cntrl0.responseFromDir.avg_stall_time     0.999296                      
system.ruby.dir_cntrl0.responseFromMemory.avg_buf_msgs     0.028409                      
system.ruby.dir_cntrl0.responseFromMemory.avg_stall_time     0.999306                      
system.ruby.dir_cntrl0.pwrStateResidencyTicks::UNDEFINED        97997                      
system.ruby.l1_cntrl0.cacheMemory.demand_hits         7381                      
system.ruby.l1_cntrl0.cacheMemory.demand_misses         1394                      
system.ruby.l1_cntrl0.cacheMemory.demand_accesses         8775                      
system.ruby.l1_cntrl0.forwardToCache.avg_buf_msgs     0.014184                      
system.ruby.l1_cntrl0.forwardToCache.avg_stall_time     6.974571                      
system.ruby.l1_cntrl0.mandatoryQueue.avg_buf_msgs     0.089553                      
system.ruby.l1_cntrl0.mandatoryQueue.avg_stall_time     0.999990                      
system.ruby.l1_cntrl0.requestFromCache.avg_buf_msgs     0.056817                      
system.ruby.l1_cntrl0.requestFromCache.avg_stall_time     1.999939                      
system.ruby.l1_cntrl0.responseToCache.avg_buf_msgs     0.014225                      
system.ruby.l1_cntrl0.responseToCache.avg_stall_time     6.994643                      
system.ruby.l1_cntrl0.sequencer.pwrStateResidencyTicks::UNDEFINED        97997                      
system.ruby.l1_cntrl0.pwrStateResidencyTicks::UNDEFINED        97997                      
system.ruby.memctrl_clk_domain.clock                3                      
system.ruby.network.routers0.port_buffers03.avg_buf_msgs     0.014184                      
system.ruby.network.routers0.port_buffers03.avg_stall_time     5.978265                      
system.ruby.network.routers0.port_buffers04.avg_buf_msgs     0.014225                      
system.ruby.network.routers0.port_buffers04.avg_stall_time     5.995469                      
system.ruby.network.routers0.port_buffers07.avg_buf_msgs     0.085145                      
system.ruby.network.routers0.port_buffers07.avg_stall_time     6.759383                      
system.ruby.network.routers0.pwrStateResidencyTicks::UNDEFINED        97997                      
system.ruby.network.routers0.percent_links_utilized     7.102258                      
system.ruby.network.routers0.msg_count.Control::2         1394                      
system.ruby.network.routers0.msg_count.Data::2         1390                      
system.ruby.network.routers0.msg_count.Response_Data::4         1394                      
system.ruby.network.routers0.msg_count.Writeback_Control::3         1390                      
system.ruby.network.routers0.msg_bytes.Control::2        11152                      
system.ruby.network.routers0.msg_bytes.Data::2       100080                      
system.ruby.network.routers0.msg_bytes.Response_Data::4       100368                      
system.ruby.network.routers0.msg_bytes.Writeback_Control::3        11120                      
system.ruby.network.routers1.port_buffers02.avg_buf_msgs     0.028409                      
system.ruby.network.routers1.port_buffers02.avg_stall_time    10.758771                      
system.ruby.network.routers1.port_buffers06.avg_buf_msgs     0.014184                      
system.ruby.network.routers1.port_buffers06.avg_stall_time     1.992837                      
system.ruby.network.routers1.port_buffers07.avg_buf_msgs     0.014225                      
system.ruby.network.routers1.port_buffers07.avg_stall_time     1.998571                      
system.ruby.network.routers1.pwrStateResidencyTicks::UNDEFINED        97997                      
system.ruby.network.routers1.percent_links_utilized     7.102258                      
system.ruby.network.routers1.msg_count.Control::2         1394                      
system.ruby.network.routers1.msg_count.Data::2         1390                      
system.ruby.network.routers1.msg_count.Response_Data::4         1394                      
system.ruby.network.routers1.msg_count.Writeback_Control::3         1390                      
system.ruby.network.routers1.msg_bytes.Control::2        11152                      
system.ruby.network.routers1.msg_bytes.Data::2       100080                      
system.ruby.network.routers1.msg_bytes.Response_Data::4       100368                      
system.ruby.network.routers1.msg_bytes.Writeback_Control::3        11120                      
system.ruby.network.int_link_buffers02.avg_buf_msgs     0.028409                      
system.ruby.network.int_link_buffers02.avg_stall_time     7.759260                      
system.ruby.network.int_link_buffers08.avg_buf_msgs     0.014184                      
system.ruby.network.int_link_buffers08.avg_stall_time     2.989224                      
system.ruby.network.int_link_buffers09.avg_buf_msgs     0.014225                      
system.ruby.network.int_link_buffers09.avg_stall_time     2.997826                      
system.ruby.network.int_link_buffers13.avg_buf_msgs     0.014184                      
system.ruby.network.int_link_buffers13.avg_stall_time     4.981938                      
system.ruby.network.int_link_buffers14.avg_buf_msgs     0.014225                      
system.ruby.network.int_link_buffers14.avg_stall_time     4.996275                      
system.ruby.network.int_link_buffers17.avg_buf_msgs     0.028409                      
system.ruby.network.int_link_buffers17.avg_stall_time     9.758954                      
system.ruby.network.routers2.port_buffers03.avg_buf_msgs     0.014184                      
system.ruby.network.routers2.port_buffers03.avg_stall_time     3.985592                      
system.ruby.network.routers2.port_buffers04.avg_buf_msgs     0.014225                      
system.ruby.network.routers2.port_buffers04.avg_stall_time     3.997061                      
system.ruby.network.routers2.port_buffers07.avg_buf_msgs     0.028409                      
system.ruby.network.routers2.port_buffers07.avg_stall_time     8.759118                      
system.ruby.network.routers2.pwrStateResidencyTicks::UNDEFINED        97997                      
system.ruby.network.routers2.percent_links_utilized     7.102258                      
system.ruby.network.routers2.msg_count.Control::2         1394                      
system.ruby.network.routers2.msg_count.Data::2         1390                      
system.ruby.network.routers2.msg_count.Response_Data::4         1394                      
system.ruby.network.routers2.msg_count.Writeback_Control::3         1390                      
system.ruby.network.routers2.msg_bytes.Control::2        11152                      
system.ruby.network.routers2.msg_bytes.Data::2       100080                      
system.ruby.network.routers2.msg_bytes.Response_Data::4       100368                      
system.ruby.network.routers2.msg_bytes.Writeback_Control::3        11120                      
system.ruby.network.pwrStateResidencyTicks::UNDEFINED        97997                      
system.ruby.network.msg_count.Control            4182                      
system.ruby.network.msg_count.Data               4170                      
system.ruby.network.msg_count.Response_Data         4182                      
system.ruby.network.msg_count.Writeback_Control         4170                      
system.ruby.network.msg_byte.Control            33456                      
system.ruby.network.msg_byte.Data              300240                      
system.ruby.network.msg_byte.Response_Data       301104                      
system.ruby.network.msg_byte.Writeback_Control        33360                      
system.sys_port_proxy.pwrStateResidencyTicks::UNDEFINED        97997                      
system.ruby.network.routers0.throttle0.link_utilization     7.110422                      
system.ruby.network.routers0.throttle0.msg_count.Response_Data::4         1394                      
system.ruby.network.routers0.throttle0.msg_count.Writeback_Control::3         1390                      
system.ruby.network.routers0.throttle0.msg_bytes.Response_Data::4       100368                      
system.ruby.network.routers0.throttle0.msg_bytes.Writeback_Control::3        11120                      
system.ruby.network.routers0.throttle1.link_utilization     7.094095                      
system.ruby.network.routers0.throttle1.msg_count.Control::2         1394                      
system.ruby.network.routers0.throttle1.msg_count.Data::2         1390                      
system.ruby.network.routers0.throttle1.msg_bytes.Control::2        11152                      
system.ruby.network.routers0.throttle1.msg_bytes.Data::2       100080                      
system.ruby.network.routers1.throttle0.link_utilization     7.094095                      
system.ruby.network.routers1.throttle0.msg_count.Control::2         1394                      
system.ruby.network.routers1.throttle0.msg_count.Data::2         1390                      
system.ruby.network.routers1.throttle0.msg_bytes.Control::2        11152                      
system.ruby.network.routers1.throttle0.msg_bytes.Data::2       100080                      
system.ruby.network.routers1.throttle1.link_utilization     7.110422                      
system.ruby.network.routers1.throttle1.msg_count.Response_Data::4         1394                      
system.ruby.network.routers1.throttle1.msg_count.Writeback_Control::3         1390                      
system.ruby.network.routers1.throttle1.msg_bytes.Response_Data::4       100368                      
system.ruby.network.routers1.throttle1.msg_bytes.Writeback_Control::3        11120                      
system.ruby.network.routers2.throttle0.link_utilization     7.110422                      
system.ruby.network.routers2.throttle0.msg_count.Response_Data::4         1394                      
system.ruby.network.routers2.throttle0.msg_count.Writeback_Control::3         1390                      
system.ruby.network.routers2.throttle0.msg_bytes.Response_Data::4       100368                      
system.ruby.network.routers2.throttle0.msg_bytes.Writeback_Control::3        11120                      
system.ruby.network.routers2.throttle1.link_utilization     7.094095                      
system.ruby.network.routers2.throttle1.msg_count.Control::2         1394                      
system.ruby.network.routers2.throttle1.msg_count.Data::2         1390                      
system.ruby.network.routers2.throttle1.msg_bytes.Control::2        11152                      
system.ruby.network.routers2.throttle1.msg_bytes.Data::2       100080                      
system.ruby.delayVCHist.vnet_1::bucket_size            1                      
system.ruby.delayVCHist.vnet_1::max_bucket            9                      
system.ruby.delayVCHist.vnet_1::samples          1394                      
system.ruby.delayVCHist.vnet_1           |        1394    100.00%    100.00% |           0      0.00%    100.00% |           0      0.00%    100.00% |           0      0.00%    100.00% |           0      0.00%    100.00% |           0      0.00%    100.00% |           0      0.00%    100.00% |           0      0.00%    100.00% |           0      0.00%    100.00% |           0      0.00%    100.00%
system.ruby.delayVCHist.vnet_1::total            1394                      
system.ruby.delayVCHist.vnet_2::bucket_size            1                      
system.ruby.delayVCHist.vnet_2::max_bucket            9                      
system.ruby.delayVCHist.vnet_2::samples          1390                      
system.ruby.delayVCHist.vnet_2           |        1390    100.00%    100.00% |           0      0.00%    100.00% |           0      0.00%    100.00% |           0      0.00%    100.00% |           0      0.00%    100.00% |           0      0.00%    100.00% |           0      0.00%    100.00% |           0      0.00%    100.00% |           0      0.00%    100.00% |           0      0.00%    100.00%
system.ruby.delayVCHist.vnet_2::total            1390                      
system.ruby.LD.latency_hist_seqr::bucket_size           64                      
system.ruby.LD.latency_hist_seqr::max_bucket          639                      
system.ruby.LD.latency_hist_seqr::samples         1076                      
system.ruby.LD.latency_hist_seqr::mean      27.320632                      
system.ruby.LD.latency_hist_seqr::gmean      6.532542                      
system.ruby.LD.latency_hist_seqr::stdev     39.184577                      
system.ruby.LD.latency_hist_seqr         |         845     78.53%     78.53% |         215     19.98%     98.51% |           9      0.84%     99.35% |           3      0.28%     99.63% |           0      0.00%     99.63% |           3      0.28%     99.91% |           0      0.00%     99.91% |           1      0.09%    100.00% |           0      0.00%    100.00% |           0      0.00%    100.00%
system.ruby.LD.latency_hist_seqr::total          1076                      
system.ruby.LD.hit_latency_hist_seqr::bucket_size            1                      
system.ruby.LD.hit_latency_hist_seqr::max_bucket            9                      
system.ruby.LD.hit_latency_hist_seqr::samples          554                      
system.ruby.LD.hit_latency_hist_seqr::mean            1                      
system.ruby.LD.hit_latency_hist_seqr::gmean            1                      
system.ruby.LD.hit_latency_hist_seqr     |           0      0.00%      0.00% |         554    100.00%    100.00% |           0      0.00%    100.00% |           0      0.00%    100.00% |           0      0.00%    100.00% |           0      0.00%    100.00% |           0      0.00%    100.00% |           0      0.00%    100.00% |           0      0.00%    100.00% |           0      0.00%    100.00%
system.ruby.LD.hit_latency_hist_seqr::total          554                      
system.ruby.LD.miss_latency_hist_seqr::bucket_size           64                      
system.ruby.LD.miss_latency_hist_seqr::max_bucket          639                      
system.ruby.LD.miss_latency_hist_seqr::samples          522                      
system.ruby.LD.miss_latency_hist_seqr::mean    55.254789                      
system.ruby.LD.miss_latency_hist_seqr::gmean    47.877463                      
system.ruby.LD.miss_latency_hist_seqr::stdev    40.615824                      
system.ruby.LD.miss_latency_hist_seqr    |         291     55.75%     55.75% |         215     41.19%     96.93% |           9      1.72%     98.66% |           3      0.57%     99.23% |           0      0.00%     99.23% |           3      0.57%     99.81% |           0      0.00%     99.81% |           1      0.19%    100.00% |           0      0.00%    100.00% |           0      0.00%    100.00%
system.ruby.LD.miss_latency_hist_seqr::total          522                      
system.ruby.ST.latency_hist_seqr::bucket_size           32                      
system.ruby.ST.latency_hist_seqr::max_bucket          319                      
system.ruby.ST.latency_hist_seqr::samples         1074                      
system.ruby.ST.latency_hist_seqr::mean      15.871508                      
system.ruby.ST.latency_hist_seqr::gmean      2.940386                      
system.ruby.ST.latency_hist_seqr::stdev     29.308658                      
system.ruby.ST.latency_hist_seqr         |         775     72.16%     72.16% |         161     14.99%     87.15% |         126     11.73%     98.88% |           2      0.19%     99.07% |           4      0.37%     99.44% |           5      0.47%     99.91% |           0      0.00%     99.91% |           0      0.00%     99.91% |           0      0.00%     99.91% |           1      0.09%    100.00%
system.ruby.ST.latency_hist_seqr::total          1074                      
system.ruby.ST.hit_latency_hist_seqr::bucket_size            1                      
system.ruby.ST.hit_latency_hist_seqr::max_bucket            9                      
system.ruby.ST.hit_latency_hist_seqr::samples          775                      
system.ruby.ST.hit_latency_hist_seqr::mean            1                      
system.ruby.ST.hit_latency_hist_seqr::gmean            1                      
system.ruby.ST.hit_latency_hist_seqr     |           0      0.00%      0.00% |         775    100.00%    100.00% |           0      0.00%    100.00% |           0      0.00%    100.00% |           0      0.00%    100.00% |           0      0.00%    100.00% |           0      0.00%    100.00% |           0      0.00%    100.00% |           0      0.00%    100.00% |           0      0.00%    100.00%
system.ruby.ST.hit_latency_hist_seqr::total          775                      
system.ruby.ST.miss_latency_hist_seqr::bucket_size           32                      
system.ruby.ST.miss_latency_hist_seqr::max_bucket          319                      
system.ruby.ST.miss_latency_hist_seqr::samples          299                      
system.ruby.ST.miss_latency_hist_seqr::mean    54.418060                      
system.ruby.ST.miss_latency_hist_seqr::gmean    48.138845                      
system.ruby.ST.miss_latency_hist_seqr::stdev    32.046461                      
system.ruby.ST.miss_latency_hist_seqr    |           0      0.00%      0.00% |         161     53.85%     53.85% |         126     42.14%     95.99% |           2      0.67%     96.66% |           4      1.34%     97.99% |           5      1.67%     99.67% |           0      0.00%     99.67% |           0      0.00%     99.67% |           0      0.00%     99.67% |           1      0.33%    100.00%
system.ruby.ST.miss_latency_hist_seqr::total          299                      
system.ruby.IFETCH.latency_hist_seqr::bucket_size           64                      
system.ruby.IFETCH.latency_hist_seqr::max_bucket          639                      
system.ruby.IFETCH.latency_hist_seqr::samples         6609                      
system.ruby.IFETCH.latency_hist_seqr::mean     6.460433                      
system.ruby.IFETCH.latency_hist_seqr::gmean     1.419802                      
system.ruby.IFETCH.latency_hist_seqr::stdev    20.662506                      
system.ruby.IFETCH.latency_hist_seqr     |        6228     94.24%     94.24% |         358      5.42%     99.65% |          17      0.26%     99.91% |           1      0.02%     99.92% |           4      0.06%     99.98% |           1      0.02%    100.00% |           0      0.00%    100.00% |           0      0.00%    100.00% |           0      0.00%    100.00% |           0      0.00%    100.00%
system.ruby.IFETCH.latency_hist_seqr::total         6609                      
system.ruby.IFETCH.hit_latency_hist_seqr::bucket_size            1                      
system.ruby.IFETCH.hit_latency_hist_seqr::max_bucket            9                      
system.ruby.IFETCH.hit_latency_hist_seqr::samples         6037                      
system.ruby.IFETCH.hit_latency_hist_seqr::mean            1                      
system.ruby.IFETCH.hit_latency_hist_seqr::gmean            1                      
system.ruby.IFETCH.hit_latency_hist_seqr |           0      0.00%      0.00% |        6037    100.00%    100.00% |           0      0.00%    100.00% |           0      0.00%    100.00% |           0      0.00%    100.00% |           0      0.00%    100.00% |           0      0.00%    100.00% |           0      0.00%    100.00% |           0      0.00%    100.00% |           0      0.00%    100.00%
system.ruby.IFETCH.hit_latency_hist_seqr::total         6037                      
system.ruby.IFETCH.miss_latency_hist_seqr::bucket_size           64                      
system.ruby.IFETCH.miss_latency_hist_seqr::max_bucket          639                      
system.ruby.IFETCH.miss_latency_hist_seqr::samples          572                      
system.ruby.IFETCH.miss_latency_hist_seqr::mean    64.090909                      
system.ruby.IFETCH.miss_latency_hist_seqr::gmean    57.394459                      
system.ruby.IFETCH.miss_latency_hist_seqr::stdev    36.034749                      
system.ruby.IFETCH.miss_latency_hist_seqr |         191     33.39%     33.39% |         358     62.59%     95.98% |          17      2.97%     98.95% |           1      0.17%     99.13% |           4      0.70%     99.83% |           1      0.17%    100.00% |           0      0.00%    100.00% |           0      0.00%    100.00% |           0      0.00%    100.00% |           0      0.00%    100.00%
system.ruby.IFETCH.miss_latency_hist_seqr::total          572                      
system.ruby.Load_Linked.latency_hist_seqr::bucket_size            8                      
system.ruby.Load_Linked.latency_hist_seqr::max_bucket           79                      
system.ruby.Load_Linked.latency_hist_seqr::samples            8                      
system.ruby.Load_Linked.latency_hist_seqr::mean     9.250000                      
system.ruby.Load_Linked.latency_hist_seqr::gmean     1.691451                      
system.ruby.Load_Linked.latency_hist_seqr::stdev    23.334524                      
system.ruby.Load_Linked.latency_hist_seqr |           7     87.50%     87.50% |           0      0.00%     87.50% |           0      0.00%     87.50% |           0      0.00%     87.50% |           0      0.00%     87.50% |           0      0.00%     87.50% |           0      0.00%     87.50% |           0      0.00%     87.50% |           1     12.50%    100.00% |           0      0.00%    100.00%
system.ruby.Load_Linked.latency_hist_seqr::total            8                      
system.ruby.Load_Linked.hit_latency_hist_seqr::bucket_size            1                      
system.ruby.Load_Linked.hit_latency_hist_seqr::max_bucket            9                      
system.ruby.Load_Linked.hit_latency_hist_seqr::samples            7                      
system.ruby.Load_Linked.hit_latency_hist_seqr::mean            1                      
system.ruby.Load_Linked.hit_latency_hist_seqr::gmean            1                      
system.ruby.Load_Linked.hit_latency_hist_seqr |           0      0.00%      0.00% |           7    100.00%    100.00% |           0      0.00%    100.00% |           0      0.00%    100.00% |           0      0.00%    100.00% |           0      0.00%    100.00% |           0      0.00%    100.00% |           0      0.00%    100.00% |           0      0.00%    100.00% |           0      0.00%    100.00%
system.ruby.Load_Linked.hit_latency_hist_seqr::total            7                      
system.ruby.Load_Linked.miss_latency_hist_seqr::bucket_size            8                      
system.ruby.Load_Linked.miss_latency_hist_seqr::max_bucket           79                      
system.ruby.Load_Linked.miss_latency_hist_seqr::samples            1                      
system.ruby.Load_Linked.miss_latency_hist_seqr::mean           67                      
system.ruby.Load_Linked.miss_latency_hist_seqr::gmean    67.000000                      
system.ruby.Load_Linked.miss_latency_hist_seqr::stdev          nan                      
system.ruby.Load_Linked.miss_latency_hist_seqr |           0      0.00%      0.00% |           0      0.00%      0.00% |           0      0.00%      0.00% |           0      0.00%      0.00% |           0      0.00%      0.00% |           0      0.00%      0.00% |           0      0.00%      0.00% |           0      0.00%      0.00% |           1    100.00%    100.00% |           0      0.00%    100.00%
system.ruby.Load_Linked.miss_latency_hist_seqr::total            1                      
system.ruby.Store_Conditional.latency_hist_seqr::bucket_size            1                      
system.ruby.Store_Conditional.latency_hist_seqr::max_bucket            9                      
system.ruby.Store_Conditional.latency_hist_seqr::samples            8                      
system.ruby.Store_Conditional.latency_hist_seqr::mean            1                      
system.ruby.Store_Conditional.latency_hist_seqr::gmean            1                      
system.ruby.Store_Conditional.latency_hist_seqr |           0      0.00%      0.00% |           8    100.00%    100.00% |           0      0.00%    100.00% |           0      0.00%    100.00% |           0      0.00%    100.00% |           0      0.00%    100.00% |           0      0.00%    100.00% |           0      0.00%    100.00% |           0      0.00%    100.00% |           0      0.00%    100.00%
system.ruby.Store_Conditional.latency_hist_seqr::total            8                      
system.ruby.Store_Conditional.hit_latency_hist_seqr::bucket_size            1                      
system.ruby.Store_Conditional.hit_latency_hist_seqr::max_bucket            9                      
system.ruby.Store_Conditional.hit_latency_hist_seqr::samples            8                      
system.ruby.Store_Conditional.hit_latency_hist_seqr::mean            1                      
system.ruby.Store_Conditional.hit_latency_hist_seqr::gmean            1                      
system.ruby.Store_Conditional.hit_latency_hist_seqr |           0      0.00%      0.00% |           8    100.00%    100.00% |           0      0.00%    100.00% |           0      0.00%    100.00% |           0      0.00%    100.00% |           0      0.00%    100.00% |           0      0.00%    100.00% |           0      0.00%    100.00% |           0      0.00%    100.00% |           0      0.00%    100.00%
system.ruby.Store_Conditional.hit_latency_hist_seqr::total            8                      
system.ruby.Directory.miss_mach_latency_hist_seqr::bucket_size           64                      
system.ruby.Directory.miss_mach_latency_hist_seqr::max_bucket          639                      
system.ruby.Directory.miss_mach_latency_hist_seqr::samples         1394                      
system.ruby.Directory.miss_mach_latency_hist_seqr::mean    58.709469                      
system.ruby.Directory.miss_mach_latency_hist_seqr::gmean    51.647809                      
system.ruby.Directory.miss_mach_latency_hist_seqr::stdev    37.273550                      
system.ruby.Directory.miss_mach_latency_hist_seqr |         643     46.13%     46.13% |         702     50.36%     96.48% |          35      2.51%     99.00% |           4      0.29%     99.28% |           5      0.36%     99.64% |           4      0.29%     99.93% |           0      0.00%     99.93% |           1      0.07%    100.00% |           0      0.00%    100.00% |           0      0.00%    100.00%
system.ruby.Directory.miss_mach_latency_hist_seqr::total         1394                      
system.ruby.Directory.miss_latency_hist_seqr.issue_to_initial_request::bucket_size            1                      
system.ruby.Directory.miss_latency_hist_seqr.issue_to_initial_request::max_bucket            9                      
system.ruby.Directory.miss_latency_hist_seqr.issue_to_initial_request::samples            1                      
system.ruby.Directory.miss_latency_hist_seqr.issue_to_initial_request::stdev          nan                      
system.ruby.Directory.miss_latency_hist_seqr.issue_to_initial_request |           1    100.00%    100.00% |           0      0.00%    100.00% |           0      0.00%    100.00% |           0      0.00%    100.00% |           0      0.00%    100.00% |           0      0.00%    100.00% |           0      0.00%    100.00% |           0      0.00%    100.00% |           0      0.00%    100.00% |           0      0.00%    100.00%
system.ruby.Directory.miss_latency_hist_seqr.issue_to_initial_request::total            1                      
system.ruby.Directory.miss_latency_hist_seqr.initial_to_forward::bucket_size            1                      
system.ruby.Directory.miss_latency_hist_seqr.initial_to_forward::max_bucket            9                      
system.ruby.Directory.miss_latency_hist_seqr.initial_to_forward::samples            1                      
system.ruby.Directory.miss_latency_hist_seqr.initial_to_forward::stdev          nan                      
system.ruby.Directory.miss_latency_hist_seqr.initial_to_forward |           1    100.00%    100.00% |           0      0.00%    100.00% |           0      0.00%    100.00% |           0      0.00%    100.00% |           0      0.00%    100.00% |           0      0.00%    100.00% |           0      0.00%    100.00% |           0      0.00%    100.00% |           0      0.00%    100.00% |           0      0.00%    100.00%
system.ruby.Directory.miss_latency_hist_seqr.initial_to_forward::total            1                      
system.ruby.Directory.miss_latency_hist_seqr.forward_to_first_response::bucket_size            1                      
system.ruby.Directory.miss_latency_hist_seqr.forward_to_first_response::max_bucket            9                      
system.ruby.Directory.miss_latency_hist_seqr.forward_to_first_response::samples            1                      
system.ruby.Directory.miss_latency_hist_seqr.forward_to_first_response::stdev          nan                      
system.ruby.Directory.miss_latency_hist_seqr.forward_to_first_response |           1    100.00%    100.00% |           0      0.00%    100.00% |           0      0.00%    100.00% |           0      0.00%    100.00% |           0      0.00%    100.00% |           0      0.00%    100.00% |           0      0.00%    100.00% |           0      0.00%    100.00% |           0      0.00%    100.00% |           0      0.00%    100.00%
system.ruby.Directory.miss_latency_hist_seqr.forward_to_first_response::total            1                      
system.ruby.Directory.miss_latency_hist_seqr.first_response_to_completion::bucket_size            8                      
system.ruby.Directory.miss_latency_hist_seqr.first_response_to_completion::max_bucket           79                      
system.ruby.Directory.miss_latency_hist_seqr.first_response_to_completion::samples            1                      
system.ruby.Directory.miss_latency_hist_seqr.first_response_to_completion::mean           75                      
system.ruby.Directory.miss_latency_hist_seqr.first_response_to_completion::gmean    75.000000                      
system.ruby.Directory.miss_latency_hist_seqr.first_response_to_completion::stdev          nan                      
system.ruby.Directory.miss_latency_hist_seqr.first_response_to_completion |           0      0.00%      0.00% |           0      0.00%      0.00% |           0      0.00%      0.00% |           0      0.00%      0.00% |           0      0.00%      0.00% |           0      0.00%      0.00% |           0      0.00%      0.00% |           0      0.00%      0.00% |           0      0.00%      0.00% |           1    100.00%    100.00%
system.ruby.Directory.miss_latency_hist_seqr.first_response_to_completion::total            1                      
system.ruby.LD.Directory.miss_type_mach_latency_hist_seqr::bucket_size           64                      
system.ruby.LD.Directory.miss_type_mach_latency_hist_seqr::max_bucket          639                      
system.ruby.LD.Directory.miss_type_mach_latency_hist_seqr::samples          522                      
system.ruby.LD.Directory.miss_type_mach_latency_hist_seqr::mean    55.254789                      
system.ruby.LD.Directory.miss_type_mach_latency_hist_seqr::gmean    47.877463                      
system.ruby.LD.Directory.miss_type_mach_latency_hist_seqr::stdev    40.615824                      
system.ruby.LD.Directory.miss_type_mach_latency_hist_seqr |         291     55.75%     55.75% |         215     41.19%     96.93% |           9      1.72%     98.66% |           3      0.57%     99.23% |           0      0.00%     99.23% |           3      0.57%     99.81% |           0      0.00%     99.81% |           1      0.19%    100.00% |           0      0.00%    100.00% |           0      0.00%    100.00%
system.ruby.LD.Directory.miss_type_mach_latency_hist_seqr::total          522                      
system.ruby.ST.Directory.miss_type_mach_latency_hist_seqr::bucket_size           32                      
system.ruby.ST.Directory.miss_type_mach_latency_hist_seqr::max_bucket          319                      
system.ruby.ST.Directory.miss_type_mach_latency_hist_seqr::samples          299                      
system.ruby.ST.Directory.miss_type_mach_latency_hist_seqr::mean    54.418060                      
system.ruby.ST.Directory.miss_type_mach_latency_hist_seqr::gmean    48.138845                      
system.ruby.ST.Directory.miss_type_mach_latency_hist_seqr::stdev    32.046461                      
system.ruby.ST.Directory.miss_type_mach_latency_hist_seqr |           0      0.00%      0.00% |         161     53.85%     53.85% |         126     42.14%     95.99% |           2      0.67%     96.66% |           4      1.34%     97.99% |           5      1.67%     99.67% |           0      0.00%     99.67% |           0      0.00%     99.67% |           0      0.00%     99.67% |           1      0.33%    100.00%
system.ruby.ST.Directory.miss_type_mach_latency_hist_seqr::total          299                      
system.ruby.IFETCH.Directory.miss_type_mach_latency_hist_seqr::bucket_size           64                      
system.ruby.IFETCH.Directory.miss_type_mach_latency_hist_seqr::max_bucket          639                      
system.ruby.IFETCH.Directory.miss_type_mach_latency_hist_seqr::samples          572                      
system.ruby.IFETCH.Directory.miss_type_mach_latency_hist_seqr::mean    64.090909                      
system.ruby.IFETCH.Directory.miss_type_mach_latency_hist_seqr::gmean    57.394459                      
system.ruby.IFETCH.Directory.miss_type_mach_latency_hist_seqr::stdev    36.034749                      
system.ruby.IFETCH.Directory.miss_type_mach_latency_hist_seqr |         191     33.39%     33.39% |         358     62.59%     95.98% |          17      2.97%     98.95% |           1      0.17%     99.13% |           4      0.70%     99.83% |           1      0.17%    100.00% |           0      0.00%    100.00% |           0      0.00%    100.00% |           0      0.00%    100.00% |           0      0.00%    100.00%
system.ruby.IFETCH.Directory.miss_type_mach_latency_hist_seqr::total          572                      
system.ruby.Load_Linked.Directory.miss_type_mach_latency_hist_seqr::bucket_size            8                      
system.ruby.Load_Linked.Directory.miss_type_mach_latency_hist_seqr::max_bucket           79                      
system.ruby.Load_Linked.Directory.miss_type_mach_latency_hist_seqr::samples            1                      
system.ruby.Load_Linked.Directory.miss_type_mach_latency_hist_seqr::mean           67                      
system.ruby.Load_Linked.Directory.miss_type_mach_latency_hist_seqr::gmean    67.000000                      
system.ruby.Load_Linked.Directory.miss_type_mach_latency_hist_seqr::stdev          nan                      
system.ruby.Load_Linked.Directory.miss_type_mach_latency_hist_seqr |           0      0.00%      0.00% |           0      0.00%      0.00% |           0      0.00%      0.00% |           0      0.00%      0.00% |           0      0.00%      0.00% |           0      0.00%      0.00% |           0      0.00%      0.00% |           0      0.00%      0.00% |           1    100.00%    100.00% |           0      0.00%    100.00%
system.ruby.Load_Linked.Directory.miss_type_mach_latency_hist_seqr::total            1                      
system.ruby.Directory_Controller.GETX            1394      0.00%      0.00%
system.ruby.Directory_Controller.PUTX            1390      0.00%      0.00%
system.ruby.Directory_Controller.Memory_Data         1394      0.00%      0.00%
system.ruby.Directory_Controller.Memory_Ack         1390      0.00%      0.00%
system.ruby.Directory_Controller.I.GETX          1394      0.00%      0.00%
system.ruby.Directory_Controller.M.PUTX          1390      0.00%      0.00%
system.ruby.Directory_Controller.IM.Memory_Data         1394      0.00%      0.00%
system.ruby.Directory_Controller.MI.Memory_Ack         1390      0.00%      0.00%
system.ruby.L1Cache_Controller.Load              1076      0.00%      0.00%
system.ruby.L1Cache_Controller.Ifetch            6609      0.00%      0.00%
system.ruby.L1Cache_Controller.Store             1090      0.00%      0.00%
system.ruby.L1Cache_Controller.Data              1394      0.00%      0.00%
system.ruby.L1Cache_Controller.Replacement         1390      0.00%      0.00%
system.ruby.L1Cache_Controller.Writeback_Ack         1390      0.00%      0.00%
system.ruby.L1Cache_Controller.I.Load             522      0.00%      0.00%
system.ruby.L1Cache_Controller.I.Ifetch           572      0.00%      0.00%
system.ruby.L1Cache_Controller.I.Store            300      0.00%      0.00%
system.ruby.L1Cache_Controller.M.Load             554      0.00%      0.00%
system.ruby.L1Cache_Controller.M.Ifetch          6037      0.00%      0.00%
system.ruby.L1Cache_Controller.M.Store            790      0.00%      0.00%
system.ruby.L1Cache_Controller.M.Replacement         1390      0.00%      0.00%
system.ruby.L1Cache_Controller.MI.Writeback_Ack         1390      0.00%      0.00%
system.ruby.L1Cache_Controller.IS.Data           1094      0.00%      0.00%
system.ruby.L1Cache_Controller.IM.Data            300      0.00%      0.00%

---------- End Simulation Statistics   ----------
