Redirecting stdout to build/RISCV/tests/opt/quick/se/00.hello/riscv/linux/o3-timing/simout
Redirecting stderr to build/RISCV/tests/opt/quick/se/00.hello/riscv/linux/o3-timing/simerr
gem5 Simulator System.  http://gem5.org
gem5 is copyrighted software; use the --copyright option for details.

gem5 compiled Apr 12 2018 13:47:37
gem5 started Apr 12 2018 13:51:34
gem5 executing on localvm.commsolid.com, pid 4474
command line: /home/rscheffel/projects/gem5_cc/build/RISCV/gem5.opt -d build/RISCV/tests/opt/quick/se/00.hello/riscv/linux/o3-timing --stats-file 'text://stats.txt?desc=False' -re /home/rscheffel/projects/gem5_cc/tests/testing/../run.py quick/se/00.hello/riscv/linux/o3-timing

Global frequency set at 1000000000000 ticks per second
Hello world!
Exiting @ tick 21932500 because exiting with last active thread context
