
---------- Begin Simulation Statistics ----------
sim_seconds                                  0.000022                      
sim_ticks                                    21932500                      
final_tick                                   21932500                      
sim_freq                                 1000000000000                      
host_inst_rate                                  63860                      
host_op_rate                                    63945                      
host_tick_rate                              251685816                      
host_mem_usage                                 398168                      
host_seconds                                     0.09                      
sim_insts                                        5562                      
sim_ops                                          5571                      
system.voltage_domain.voltage                       1                      
system.clk_domain.clock                          1000                      
system.physmem.pwrStateResidencyTicks::UNDEFINED     21932500                      
system.physmem.bytes_read::cpu.inst             18560                      
system.physmem.bytes_read::cpu.data              9344                      
system.physmem.bytes_read::total                27904                      
system.physmem.bytes_inst_read::cpu.inst        18560                      
system.physmem.bytes_inst_read::total           18560                      
system.physmem.num_reads::cpu.inst                290                      
system.physmem.num_reads::cpu.data                146                      
system.physmem.num_reads::total                   436                      
system.physmem.bw_read::cpu.inst            846232760                      
system.physmem.bw_read::cpu.data            426034424                      
system.physmem.bw_read::total              1272267183                      
system.physmem.bw_inst_read::cpu.inst       846232760                      
system.physmem.bw_inst_read::total          846232760                      
system.physmem.bw_total::cpu.inst           846232760                      
system.physmem.bw_total::cpu.data           426034424                      
system.physmem.bw_total::total             1272267183                      
system.physmem.readReqs                           436                      
system.physmem.writeReqs                            0                      
system.physmem.readBursts                         436                      
system.physmem.writeBursts                          0                      
system.physmem.bytesReadDRAM                    27904                      
system.physmem.bytesReadWrQ                         0                      
system.physmem.bytesWritten                         0                      
system.physmem.bytesReadSys                     27904                      
system.physmem.bytesWrittenSys                      0                      
system.physmem.servicedByWrQ                        0                      
system.physmem.mergedWrBursts                       0                      
system.physmem.neitherReadNorWriteReqs              0                      
system.physmem.perBankRdBursts::0                  30                      
system.physmem.perBankRdBursts::1                   0                      
system.physmem.perBankRdBursts::2                  32                      
system.physmem.perBankRdBursts::3                  18                      
system.physmem.perBankRdBursts::4                  59                      
system.physmem.perBankRdBursts::5                  93                      
system.physmem.perBankRdBursts::6                  65                      
system.physmem.perBankRdBursts::7                  51                      
system.physmem.perBankRdBursts::8                  54                      
system.physmem.perBankRdBursts::9                  27                      
system.physmem.perBankRdBursts::10                  0                      
system.physmem.perBankRdBursts::11                  2                      
system.physmem.perBankRdBursts::12                  2                      
system.physmem.perBankRdBursts::13                  2                      
system.physmem.perBankRdBursts::14                  1                      
system.physmem.perBankRdBursts::15                  0                      
system.physmem.perBankWrBursts::0                   0                      
system.physmem.perBankWrBursts::1                   0                      
system.physmem.perBankWrBursts::2                   0                      
system.physmem.perBankWrBursts::3                   0                      
system.physmem.perBankWrBursts::4                   0                      
system.physmem.perBankWrBursts::5                   0                      
system.physmem.perBankWrBursts::6                   0                      
system.physmem.perBankWrBursts::7                   0                      
system.physmem.perBankWrBursts::8                   0                      
system.physmem.perBankWrBursts::9                   0                      
system.physmem.perBankWrBursts::10                  0                      
system.physmem.perBankWrBursts::11                  0                      
system.physmem.perBankWrBursts::12                  0                      
system.physmem.perBankWrBursts::13                  0                      
system.physmem.perBankWrBursts::14                  0                      
system.physmem.perBankWrBursts::15                  0                      
system.physmem.numRdRetry                           0                      
system.physmem.numWrRetry                           0                      
system.physmem.totGap                        21840500                      
system.physmem.readPktSize::0                       0                      
system.physmem.readPktSize::1                       0                      
system.physmem.readPktSize::2                       0                      
system.physmem.readPktSize::3                       0                      
system.physmem.readPktSize::4                       0                      
system.physmem.readPktSize::5                       0                      
system.physmem.readPktSize::6                     436                      
system.physmem.writePktSize::0                      0                      
system.physmem.writePktSize::1                      0                      
system.physmem.writePktSize::2                      0                      
system.physmem.writePktSize::3                      0                      
system.physmem.writePktSize::4                      0                      
system.physmem.writePktSize::5                      0                      
system.physmem.writePktSize::6                      0                      
system.physmem.rdQLenPdf::0                       225                      
system.physmem.rdQLenPdf::1                       127                      
system.physmem.rdQLenPdf::2                        60                      
system.physmem.rdQLenPdf::3                        16                      
system.physmem.rdQLenPdf::4                         6                      
system.physmem.rdQLenPdf::5                         2                      
system.physmem.rdQLenPdf::6                         0                      
system.physmem.rdQLenPdf::7                         0                      
system.physmem.rdQLenPdf::8                         0                      
system.physmem.rdQLenPdf::9                         0                      
system.physmem.rdQLenPdf::10                        0                      
system.physmem.rdQLenPdf::11                        0                      
system.physmem.rdQLenPdf::12                        0                      
system.physmem.rdQLenPdf::13                        0                      
system.physmem.rdQLenPdf::14                        0                      
system.physmem.rdQLenPdf::15                        0                      
system.physmem.rdQLenPdf::16                        0                      
system.physmem.rdQLenPdf::17                        0                      
system.physmem.rdQLenPdf::18                        0                      
system.physmem.rdQLenPdf::19                        0                      
system.physmem.rdQLenPdf::20                        0                      
system.physmem.rdQLenPdf::21                        0                      
system.physmem.rdQLenPdf::22                        0                      
system.physmem.rdQLenPdf::23                        0                      
system.physmem.rdQLenPdf::24                        0                      
system.physmem.rdQLenPdf::25                        0                      
system.physmem.rdQLenPdf::26                        0                      
system.physmem.rdQLenPdf::27                        0                      
system.physmem.rdQLenPdf::28                        0                      
system.physmem.rdQLenPdf::29                        0                      
system.physmem.rdQLenPdf::30                        0                      
system.physmem.rdQLenPdf::31                        0                      
system.physmem.wrQLenPdf::0                         0                      
system.physmem.wrQLenPdf::1                         0                      
system.physmem.wrQLenPdf::2                         0                      
system.physmem.wrQLenPdf::3                         0                      
system.physmem.wrQLenPdf::4                         0                      
system.physmem.wrQLenPdf::5                         0                      
system.physmem.wrQLenPdf::6                         0                      
system.physmem.wrQLenPdf::7                         0                      
system.physmem.wrQLenPdf::8                         0                      
system.physmem.wrQLenPdf::9                         0                      
system.physmem.wrQLenPdf::10                        0                      
system.physmem.wrQLenPdf::11                        0                      
system.physmem.wrQLenPdf::12                        0                      
system.physmem.wrQLenPdf::13                        0                      
system.physmem.wrQLenPdf::14                        0                      
system.physmem.wrQLenPdf::15                        0                      
system.physmem.wrQLenPdf::16                        0                      
system.physmem.wrQLenPdf::17                        0                      
system.physmem.wrQLenPdf::18                        0                      
system.physmem.wrQLenPdf::19                        0                      
system.physmem.wrQLenPdf::20                        0                      
system.physmem.wrQLenPdf::21                        0                      
system.physmem.wrQLenPdf::22                        0                      
system.physmem.wrQLenPdf::23                        0                      
system.physmem.wrQLenPdf::24                        0                      
system.physmem.wrQLenPdf::25                        0                      
system.physmem.wrQLenPdf::26                        0                      
system.physmem.wrQLenPdf::27                        0                      
system.physmem.wrQLenPdf::28                        0                      
system.physmem.wrQLenPdf::29                        0                      
system.physmem.wrQLenPdf::30                        0                      
system.physmem.wrQLenPdf::31                        0                      
system.physmem.wrQLenPdf::32                        0                      
system.physmem.wrQLenPdf::33                        0                      
system.physmem.wrQLenPdf::34                        0                      
system.physmem.wrQLenPdf::35                        0                      
system.physmem.wrQLenPdf::36                        0                      
system.physmem.wrQLenPdf::37                        0                      
system.physmem.wrQLenPdf::38                        0                      
system.physmem.wrQLenPdf::39                        0                      
system.physmem.wrQLenPdf::40                        0                      
system.physmem.wrQLenPdf::41                        0                      
system.physmem.wrQLenPdf::42                        0                      
system.physmem.wrQLenPdf::43                        0                      
system.physmem.wrQLenPdf::44                        0                      
system.physmem.wrQLenPdf::45                        0                      
system.physmem.wrQLenPdf::46                        0                      
system.physmem.wrQLenPdf::47                        0                      
system.physmem.wrQLenPdf::48                        0                      
system.physmem.wrQLenPdf::49                        0                      
system.physmem.wrQLenPdf::50                        0                      
system.physmem.wrQLenPdf::51                        0                      
system.physmem.wrQLenPdf::52                        0                      
system.physmem.wrQLenPdf::53                        0                      
system.physmem.wrQLenPdf::54                        0                      
system.physmem.wrQLenPdf::55                        0                      
system.physmem.wrQLenPdf::56                        0                      
system.physmem.wrQLenPdf::57                        0                      
system.physmem.wrQLenPdf::58                        0                      
system.physmem.wrQLenPdf::59                        0                      
system.physmem.wrQLenPdf::60                        0                      
system.physmem.wrQLenPdf::61                        0                      
system.physmem.wrQLenPdf::62                        0                      
system.physmem.wrQLenPdf::63                        0                      
system.physmem.bytesPerActivate::samples           97                      
system.physmem.bytesPerActivate::mean      259.298969                      
system.physmem.bytesPerActivate::gmean     162.324695                      
system.physmem.bytesPerActivate::stdev     280.094633                      
system.physmem.bytesPerActivate::0-127             37     38.14%     38.14%
system.physmem.bytesPerActivate::128-255           28     28.87%     67.01%
system.physmem.bytesPerActivate::256-383           11     11.34%     78.35%
system.physmem.bytesPerActivate::384-511            3      3.09%     81.44%
system.physmem.bytesPerActivate::512-639            4      4.12%     85.57%
system.physmem.bytesPerActivate::640-767            5      5.15%     90.72%
system.physmem.bytesPerActivate::768-895            1      1.03%     91.75%
system.physmem.bytesPerActivate::896-1023            3      3.09%     94.85%
system.physmem.bytesPerActivate::1024-1151            5      5.15%    100.00%
system.physmem.bytesPerActivate::total             97                      
system.physmem.totQLat                        7781000                      
system.physmem.totMemAccLat                  15956000                      
system.physmem.totBusLat                      2180000                      
system.physmem.avgQLat                       17846.33                      
system.physmem.avgBusLat                      5000.00                      
system.physmem.avgMemAccLat                  36596.33                      
system.physmem.avgRdBW                        1272.27                      
system.physmem.avgWrBW                           0.00                      
system.physmem.avgRdBWSys                     1272.27                      
system.physmem.avgWrBWSys                        0.00                      
system.physmem.peakBW                        12800.00                      
system.physmem.busUtil                           9.94                      
system.physmem.busUtilRead                       9.94                      
system.physmem.busUtilWrite                      0.00                      
system.physmem.avgRdQLen                         1.87                      
system.physmem.avgWrQLen                         0.00                      
system.physmem.readRowHits                        330                      
system.physmem.writeRowHits                         0                      
system.physmem.readRowHitRate                   75.69                      
system.physmem.writeRowHitRate                    nan                      
system.physmem.avgGap                        50092.89                      
system.physmem.pageHitRate                      75.69                      
system.physmem_0.actEnergy                     606900                      
system.physmem_0.preEnergy                     299805                      
system.physmem_0.readEnergy                   2484720                      
system.physmem_0.writeEnergy                        0                      
system.physmem_0.refreshEnergy           1229280.000000                      
system.physmem_0.actBackEnergy                3933000                      
system.physmem_0.preBackEnergy                  30720                      
system.physmem_0.actPowerDownEnergy           6030600                      
system.physmem_0.prePowerDownEnergy               960                      
system.physmem_0.selfRefreshEnergy                  0                      
system.physmem_0.totalEnergy                 14615985                      
system.physmem_0.averagePower              666.407614                      
system.physmem_0.totalIdleTime               13153000                      
system.physmem_0.memoryStateTime::IDLE          23500                      
system.physmem_0.memoryStateTime::REF          520000                      
system.physmem_0.memoryStateTime::SREF              0                      
system.physmem_0.memoryStateTime::PRE_PDN         2500                      
system.physmem_0.memoryStateTime::ACT         8160250                      
system.physmem_0.memoryStateTime::ACT_PDN     13226250                      
system.physmem_1.actEnergy                     149940                      
system.physmem_1.preEnergy                      68310                      
system.physmem_1.readEnergy                    628320                      
system.physmem_1.writeEnergy                        0                      
system.physmem_1.refreshEnergy           1229280.000000                      
system.physmem_1.actBackEnergy                1281360                      
system.physmem_1.preBackEnergy                 202560                      
system.physmem_1.actPowerDownEnergy           7941810                      
system.physmem_1.prePowerDownEnergy            452640                      
system.physmem_1.selfRefreshEnergy                  0                      
system.physmem_1.totalEnergy                 11954220                      
system.physmem_1.averagePower              545.045936                      
system.physmem_1.totalIdleTime               18535250                      
system.physmem_1.memoryStateTime::IDLE         472250                      
system.physmem_1.memoryStateTime::REF          520000                      
system.physmem_1.memoryStateTime::SREF              0                      
system.physmem_1.memoryStateTime::PRE_PDN      1177750                      
system.physmem_1.memoryStateTime::ACT         2349250                      
system.physmem_1.memoryStateTime::ACT_PDN     17413250                      
system.pwrStateResidencyTicks::UNDEFINED     21932500                      
system.cpu.branchPred.lookups                    2619                      
system.cpu.branchPred.condPredicted              1834                      
system.cpu.branchPred.condIncorrect               614                      
system.cpu.branchPred.BTBLookups                 2364                      
system.cpu.branchPred.BTBHits                     479                      
system.cpu.branchPred.BTBCorrect                    0                      
system.cpu.branchPred.BTBHitPct             20.262267                      
system.cpu.branchPred.usedRAS                       0                      
system.cpu.branchPred.RASInCorrect                  0                      
system.cpu.branchPred.indirectLookups             541                      
system.cpu.branchPred.indirectHits                 73                      
system.cpu.branchPred.indirectMisses              468                      
system.cpu.branchPredindirectMispredicted          210                      
system.cpu_clk_domain.clock                       500                      
system.cpu.dtb.read_hits                            0                      
system.cpu.dtb.read_misses                          0                      
system.cpu.dtb.read_accesses                        0                      
system.cpu.dtb.write_hits                           0                      
system.cpu.dtb.write_misses                         0                      
system.cpu.dtb.write_accesses                       0                      
system.cpu.dtb.hits                                 0                      
system.cpu.dtb.misses                               0                      
system.cpu.dtb.accesses                             0                      
system.cpu.itb.read_hits                            0                      
system.cpu.itb.read_misses                          0                      
system.cpu.itb.read_accesses                        0                      
system.cpu.itb.write_hits                           0                      
system.cpu.itb.write_misses                         0                      
system.cpu.itb.write_accesses                       0                      
system.cpu.itb.hits                                 0                      
system.cpu.itb.misses                               0                      
system.cpu.itb.accesses                             0                      
system.cpu.workload.numSyscalls                     9                      
system.cpu.pwrStateResidencyTicks::ON        21932500                      
system.cpu.numCycles                            43867                      
system.cpu.numWorkItemsStarted                      0                      
system.cpu.numWorkItemsCompleted                    0                      
system.cpu.fetch.icacheStallCycles               7069                      
system.cpu.fetch.Insts                          11094                      
system.cpu.fetch.Branches                        2619                      
system.cpu.fetch.predictedBranches                552                      
system.cpu.fetch.Cycles                          8149                      
system.cpu.fetch.SquashCycles                    1252                      
system.cpu.fetch.MiscStallCycles                    3                      
system.cpu.fetch.IcacheWaitRetryStallCycles           56                      
system.cpu.fetch.CacheLines                      1335                      
system.cpu.fetch.IcacheSquashes                   202                      
system.cpu.fetch.rateDist::samples              15903                      
system.cpu.fetch.rateDist::mean              0.698925                      
system.cpu.fetch.rateDist::stdev             1.089171                      
system.cpu.fetch.rateDist::underflows               0      0.00%      0.00%
system.cpu.fetch.rateDist::0                     8817     55.44%     55.44%
system.cpu.fetch.rateDist::1                     4939     31.06%     86.50%
system.cpu.fetch.rateDist::2                     1202      7.56%     94.06%
system.cpu.fetch.rateDist::3                      491      3.09%     97.15%
system.cpu.fetch.rateDist::4                      226      1.42%     98.57%
system.cpu.fetch.rateDist::5                       94      0.59%     99.16%
system.cpu.fetch.rateDist::6                       65      0.41%     99.57%
system.cpu.fetch.rateDist::7                       17      0.11%     99.67%
system.cpu.fetch.rateDist::8                       52      0.33%    100.00%
system.cpu.fetch.rateDist::overflows                0      0.00%    100.00%
system.cpu.fetch.rateDist::min_value                0                      
system.cpu.fetch.rateDist::max_value                8                      
system.cpu.fetch.rateDist::total                15903                      
system.cpu.fetch.branchRate                  0.059703                      
system.cpu.fetch.rate                        0.252901                      
system.cpu.decode.IdleCycles                     6372                      
system.cpu.decode.BlockedCycles                  3071                      
system.cpu.decode.RunCycles                      5871                      
system.cpu.decode.UnblockCycles                    94                      
system.cpu.decode.SquashCycles                    495                      
system.cpu.decode.BranchResolved                  557                      
system.cpu.decode.BranchMispred                   137                      
system.cpu.decode.DecodedInsts                   9891                      
system.cpu.decode.SquashedInsts                   217                      
system.cpu.rename.SquashCycles                    495                      
system.cpu.rename.IdleCycles                     6814                      
system.cpu.rename.BlockCycles                     382                      
system.cpu.rename.serializeStallCycles           1601                      
system.cpu.rename.RunCycles                      5519                      
system.cpu.rename.UnblockCycles                  1092                      
system.cpu.rename.RenamedInsts                   9315                      
system.cpu.rename.ROBFullEvents                     3                      
system.cpu.rename.IQFullEvents                      8                      
system.cpu.rename.LQFullEvents                     16                      
system.cpu.rename.SQFullEvents                   1060                      
system.cpu.rename.RenamedOperands                6003                      
system.cpu.rename.RenameLookups                 11173                      
system.cpu.rename.int_rename_lookups            11161                      
system.cpu.rename.fp_rename_lookups                12                      
system.cpu.rename.CommittedMaps                  3420                      
system.cpu.rename.UndoneMaps                     2583                      
system.cpu.rename.serializingInsts                 30                      
system.cpu.rename.tempSerializingInsts             30                      
system.cpu.rename.skidInsts                       320                      
system.cpu.memDep0.insertedLoads                 1677                      
system.cpu.memDep0.insertedStores                1317                      
system.cpu.memDep0.conflictingLoads                 6                      
system.cpu.memDep0.conflictingStores                1                      
system.cpu.iq.iqInstsAdded                       8327                      
system.cpu.iq.iqNonSpecInstsAdded                  44                      
system.cpu.iq.iqInstsIssued                      7802                      
system.cpu.iq.iqSquashedInstsIssued                 8                      
system.cpu.iq.iqSquashedInstsExamined            2799                      
system.cpu.iq.iqSquashedOperandsExamined         1169                      
system.cpu.iq.iqSquashedNonSpecRemoved             17                      
system.cpu.iq.issued_per_cycle::samples         15903                      
system.cpu.iq.issued_per_cycle::mean         0.490599                      
system.cpu.iq.issued_per_cycle::stdev        0.884485                      
system.cpu.iq.issued_per_cycle::underflows            0      0.00%      0.00%
system.cpu.iq.issued_per_cycle::0               10813     67.99%     67.99%
system.cpu.iq.issued_per_cycle::1                3321     20.88%     88.88%
system.cpu.iq.issued_per_cycle::2                1181      7.43%     96.30%
system.cpu.iq.issued_per_cycle::3                 363      2.28%     98.59%
system.cpu.iq.issued_per_cycle::4                 151      0.95%     99.53%
system.cpu.iq.issued_per_cycle::5                  44      0.28%     99.81%
system.cpu.iq.issued_per_cycle::6                  15      0.09%     99.91%
system.cpu.iq.issued_per_cycle::7                   4      0.03%     99.93%
system.cpu.iq.issued_per_cycle::8                  11      0.07%    100.00%
system.cpu.iq.issued_per_cycle::overflows            0      0.00%    100.00%
system.cpu.iq.issued_per_cycle::min_value            0                      
system.cpu.iq.issued_per_cycle::max_value            8                      
system.cpu.iq.issued_per_cycle::total           15903                      
system.cpu.iq.fu_full::No_OpClass                   0      0.00%      0.00%
system.cpu.iq.fu_full::IntAlu                       5     22.73%     22.73%
system.cpu.iq.fu_full::IntMult                      0      0.00%     22.73%
system.cpu.iq.fu_full::IntDiv                       0      0.00%     22.73%
system.cpu.iq.fu_full::FloatAdd                     0      0.00%     22.73%
system.cpu.iq.fu_full::FloatCmp                     0      0.00%     22.73%
system.cpu.iq.fu_full::FloatCvt                     0      0.00%     22.73%
system.cpu.iq.fu_full::FloatMult                    0      0.00%     22.73%
system.cpu.iq.fu_full::FloatMultAcc                 0      0.00%     22.73%
system.cpu.iq.fu_full::FloatDiv                     0      0.00%     22.73%
system.cpu.iq.fu_full::FloatMisc                    0      0.00%     22.73%
system.cpu.iq.fu_full::FloatSqrt                    0      0.00%     22.73%
system.cpu.iq.fu_full::SimdAdd                      0      0.00%     22.73%
system.cpu.iq.fu_full::SimdAddAcc                   0      0.00%     22.73%
system.cpu.iq.fu_full::SimdAlu                      0      0.00%     22.73%
system.cpu.iq.fu_full::SimdCmp                      0      0.00%     22.73%
system.cpu.iq.fu_full::SimdCvt                      0      0.00%     22.73%
system.cpu.iq.fu_full::SimdMisc                     0      0.00%     22.73%
system.cpu.iq.fu_full::SimdMult                     0      0.00%     22.73%
system.cpu.iq.fu_full::SimdMultAcc                  0      0.00%     22.73%
system.cpu.iq.fu_full::SimdShift                    0      0.00%     22.73%
system.cpu.iq.fu_full::SimdShiftAcc                 0      0.00%     22.73%
system.cpu.iq.fu_full::SimdSqrt                     0      0.00%     22.73%
system.cpu.iq.fu_full::SimdFloatAdd                 0      0.00%     22.73%
system.cpu.iq.fu_full::SimdFloatAlu                 0      0.00%     22.73%
system.cpu.iq.fu_full::SimdFloatCmp                 0      0.00%     22.73%
system.cpu.iq.fu_full::SimdFloatCvt                 0      0.00%     22.73%
system.cpu.iq.fu_full::SimdFloatDiv                 0      0.00%     22.73%
system.cpu.iq.fu_full::SimdFloatMisc                0      0.00%     22.73%
system.cpu.iq.fu_full::SimdFloatMult                0      0.00%     22.73%
system.cpu.iq.fu_full::SimdFloatMultAcc             0      0.00%     22.73%
system.cpu.iq.fu_full::SimdFloatSqrt                0      0.00%     22.73%
system.cpu.iq.fu_full::MemRead                      6     27.27%     50.00%
system.cpu.iq.fu_full::MemWrite                     9     40.91%     90.91%
system.cpu.iq.fu_full::FloatMemRead                 0      0.00%     90.91%
system.cpu.iq.fu_full::FloatMemWrite                2      9.09%    100.00%
system.cpu.iq.fu_full::IprAccess                    0      0.00%    100.00%
system.cpu.iq.fu_full::InstPrefetch                 0      0.00%    100.00%
system.cpu.iq.FU_type_0::No_OpClass                10      0.13%      0.13%
system.cpu.iq.FU_type_0::IntAlu                  4914     62.98%     63.11%
system.cpu.iq.FU_type_0::IntMult                    3      0.04%     63.15%
system.cpu.iq.FU_type_0::IntDiv                     6      0.08%     63.23%
system.cpu.iq.FU_type_0::FloatAdd                   0      0.00%     63.23%
system.cpu.iq.FU_type_0::FloatCmp                   0      0.00%     63.23%
system.cpu.iq.FU_type_0::FloatCvt                   0      0.00%     63.23%
system.cpu.iq.FU_type_0::FloatMult                  0      0.00%     63.23%
system.cpu.iq.FU_type_0::FloatMultAcc               0      0.00%     63.23%
system.cpu.iq.FU_type_0::FloatDiv                   0      0.00%     63.23%
system.cpu.iq.FU_type_0::FloatMisc                  0      0.00%     63.23%
system.cpu.iq.FU_type_0::FloatSqrt                  0      0.00%     63.23%
system.cpu.iq.FU_type_0::SimdAdd                    0      0.00%     63.23%
system.cpu.iq.FU_type_0::SimdAddAcc                 0      0.00%     63.23%
system.cpu.iq.FU_type_0::SimdAlu                    0      0.00%     63.23%
system.cpu.iq.FU_type_0::SimdCmp                    0      0.00%     63.23%
system.cpu.iq.FU_type_0::SimdCvt                    0      0.00%     63.23%
system.cpu.iq.FU_type_0::SimdMisc                   0      0.00%     63.23%
system.cpu.iq.FU_type_0::SimdMult                   0      0.00%     63.23%
system.cpu.iq.FU_type_0::SimdMultAcc                0      0.00%     63.23%
system.cpu.iq.FU_type_0::SimdShift                  0      0.00%     63.23%
system.cpu.iq.FU_type_0::SimdShiftAcc               0      0.00%     63.23%
system.cpu.iq.FU_type_0::SimdSqrt                   0      0.00%     63.23%
system.cpu.iq.FU_type_0::SimdFloatAdd               0      0.00%     63.23%
system.cpu.iq.FU_type_0::SimdFloatAlu               0      0.00%     63.23%
system.cpu.iq.FU_type_0::SimdFloatCmp               0      0.00%     63.23%
system.cpu.iq.FU_type_0::SimdFloatCvt               0      0.00%     63.23%
system.cpu.iq.FU_type_0::SimdFloatDiv               0      0.00%     63.23%
system.cpu.iq.FU_type_0::SimdFloatMisc              0      0.00%     63.23%
system.cpu.iq.FU_type_0::SimdFloatMult              0      0.00%     63.23%
system.cpu.iq.FU_type_0::SimdFloatMultAcc            0      0.00%     63.23%
system.cpu.iq.FU_type_0::SimdFloatSqrt              0      0.00%     63.23%
system.cpu.iq.FU_type_0::MemRead                 1612     20.66%     83.89%
system.cpu.iq.FU_type_0::MemWrite                1245     15.96%     99.85%
system.cpu.iq.FU_type_0::FloatMemRead               0      0.00%     99.85%
system.cpu.iq.FU_type_0::FloatMemWrite             12      0.15%    100.00%
system.cpu.iq.FU_type_0::IprAccess                  0      0.00%    100.00%
system.cpu.iq.FU_type_0::InstPrefetch               0      0.00%    100.00%
system.cpu.iq.FU_type_0::total                   7802                      
system.cpu.iq.rate                           0.177856                      
system.cpu.iq.fu_busy_cnt                          22                      
system.cpu.iq.fu_busy_rate                   0.002820                      
system.cpu.iq.int_inst_queue_reads              31511                      
system.cpu.iq.int_inst_queue_writes             11161                      
system.cpu.iq.int_inst_queue_wakeup_accesses         7077                      
system.cpu.iq.fp_inst_queue_reads                  26                      
system.cpu.iq.fp_inst_queue_writes                 12                      
system.cpu.iq.fp_inst_queue_wakeup_accesses           12                      
system.cpu.iq.vec_inst_queue_reads                  0                      
system.cpu.iq.vec_inst_queue_writes                 0                      
system.cpu.iq.vec_inst_queue_wakeup_accesses            0                      
system.cpu.iq.int_alu_accesses                   7800                      
system.cpu.iq.fp_alu_accesses                      14                      
system.cpu.iq.vec_alu_accesses                      0                      
system.cpu.iew.lsq.thread0.forwLoads               10                      
system.cpu.iew.lsq.thread0.invAddrLoads             0                      
system.cpu.iew.lsq.thread0.squashedLoads          593                      
system.cpu.iew.lsq.thread0.ignoredResponses            3                      
system.cpu.iew.lsq.thread0.memOrderViolation            3                      
system.cpu.iew.lsq.thread0.squashedStores          235                      
system.cpu.iew.lsq.thread0.invAddrSwpfs             0                      
system.cpu.iew.lsq.thread0.blockedLoads             0                      
system.cpu.iew.lsq.thread0.rescheduledLoads            0                      
system.cpu.iew.lsq.thread0.cacheBlocked            42                      
system.cpu.iew.iewIdleCycles                        0                      
system.cpu.iew.iewSquashCycles                    495                      
system.cpu.iew.iewBlockCycles                     253                      
system.cpu.iew.iewUnblockCycles                    81                      
system.cpu.iew.iewDispatchedInsts                8371                      
system.cpu.iew.iewDispSquashedInsts               372                      
system.cpu.iew.iewDispLoadInsts                  1677                      
system.cpu.iew.iewDispStoreInsts                 1317                      
system.cpu.iew.iewDispNonSpecInsts                 43                      
system.cpu.iew.iewIQFullEvents                      0                      
system.cpu.iew.iewLSQFullEvents                    81                      
system.cpu.iew.memOrderViolationEvents              3                      
system.cpu.iew.predictedTakenIncorrect             46                      
system.cpu.iew.predictedNotTakenIncorrect          491                      
system.cpu.iew.branchMispredicts                  537                      
system.cpu.iew.iewExecutedInsts                  7307                      
system.cpu.iew.iewExecLoadInsts                  1522                      
system.cpu.iew.iewExecSquashedInsts               495                      
system.cpu.iew.exec_swp                             0                      
system.cpu.iew.exec_nop                             0                      
system.cpu.iew.exec_refs                         2723                      
system.cpu.iew.exec_branches                     1606                      
system.cpu.iew.exec_stores                       1201                      
system.cpu.iew.exec_rate                     0.166572                      
system.cpu.iew.wb_sent                           7136                      
system.cpu.iew.wb_count                          7089                      
system.cpu.iew.wb_producers                      2393                      
system.cpu.iew.wb_consumers                      3069                      
system.cpu.iew.wb_rate                       0.161602                      
system.cpu.iew.wb_fanout                     0.779733                      
system.cpu.commit.commitSquashedInsts            2801                      
system.cpu.commit.commitNonSpecStalls              27                      
system.cpu.commit.branchMispredicts               483                      
system.cpu.commit.committed_per_cycle::samples        15230                      
system.cpu.commit.committed_per_cycle::mean     0.365791                      
system.cpu.commit.committed_per_cycle::stdev     0.954654                      
system.cpu.commit.committed_per_cycle::underflows            0      0.00%      0.00%
system.cpu.commit.committed_per_cycle::0        12187     80.02%     80.02%
system.cpu.commit.committed_per_cycle::1         1827     12.00%     92.02%
system.cpu.commit.committed_per_cycle::2          595      3.91%     95.92%
system.cpu.commit.committed_per_cycle::3          256      1.68%     97.60%
system.cpu.commit.committed_per_cycle::4          215      1.41%     99.02%
system.cpu.commit.committed_per_cycle::5           73      0.48%     99.49%
system.cpu.commit.committed_per_cycle::6           19      0.12%     99.62%
system.cpu.commit.committed_per_cycle::7           17      0.11%     99.73%
system.cpu.commit.committed_per_cycle::8           41      0.27%    100.00%
system.cpu.commit.committed_per_cycle::overflows            0      0.00%    100.00%
system.cpu.commit.committed_per_cycle::min_value            0                      
system.cpu.commit.committed_per_cycle::max_value            8                      
system.cpu.commit.committed_per_cycle::total        15230                      
system.cpu.commit.committedInsts                 5562                      
system.cpu.commit.committedOps                   5571                      
system.cpu.commit.swp_count                         0                      
system.cpu.commit.refs                           2166                      
system.cpu.commit.loads                          1084                      
system.cpu.commit.membars                           1                      
system.cpu.commit.branches                       1198                      
system.cpu.commit.vec_insts                         0                      
system.cpu.commit.fp_insts                         12                      
system.cpu.commit.int_insts                      5508                      
system.cpu.commit.function_calls                  282                      
system.cpu.commit.op_class_0::No_OpClass            1      0.02%      0.02%
system.cpu.commit.op_class_0::IntAlu             3398     60.99%     61.01%
system.cpu.commit.op_class_0::IntMult               2      0.04%     61.05%
system.cpu.commit.op_class_0::IntDiv                4      0.07%     61.12%
system.cpu.commit.op_class_0::FloatAdd              0      0.00%     61.12%
system.cpu.commit.op_class_0::FloatCmp              0      0.00%     61.12%
system.cpu.commit.op_class_0::FloatCvt              0      0.00%     61.12%
system.cpu.commit.op_class_0::FloatMult             0      0.00%     61.12%
system.cpu.commit.op_class_0::FloatMultAcc            0      0.00%     61.12%
system.cpu.commit.op_class_0::FloatDiv              0      0.00%     61.12%
system.cpu.commit.op_class_0::FloatMisc             0      0.00%     61.12%
system.cpu.commit.op_class_0::FloatSqrt             0      0.00%     61.12%
system.cpu.commit.op_class_0::SimdAdd               0      0.00%     61.12%
system.cpu.commit.op_class_0::SimdAddAcc            0      0.00%     61.12%
system.cpu.commit.op_class_0::SimdAlu               0      0.00%     61.12%
system.cpu.commit.op_class_0::SimdCmp               0      0.00%     61.12%
system.cpu.commit.op_class_0::SimdCvt               0      0.00%     61.12%
system.cpu.commit.op_class_0::SimdMisc              0      0.00%     61.12%
system.cpu.commit.op_class_0::SimdMult              0      0.00%     61.12%
system.cpu.commit.op_class_0::SimdMultAcc            0      0.00%     61.12%
system.cpu.commit.op_class_0::SimdShift             0      0.00%     61.12%
system.cpu.commit.op_class_0::SimdShiftAcc            0      0.00%     61.12%
system.cpu.commit.op_class_0::SimdSqrt              0      0.00%     61.12%
system.cpu.commit.op_class_0::SimdFloatAdd            0      0.00%     61.12%
system.cpu.commit.op_class_0::SimdFloatAlu            0      0.00%     61.12%
system.cpu.commit.op_class_0::SimdFloatCmp            0      0.00%     61.12%
system.cpu.commit.op_class_0::SimdFloatCvt            0      0.00%     61.12%
system.cpu.commit.op_class_0::SimdFloatDiv            0      0.00%     61.12%
system.cpu.commit.op_class_0::SimdFloatMisc            0      0.00%     61.12%
system.cpu.commit.op_class_0::SimdFloatMult            0      0.00%     61.12%
system.cpu.commit.op_class_0::SimdFloatMultAcc            0      0.00%     61.12%
system.cpu.commit.op_class_0::SimdFloatSqrt            0      0.00%     61.12%
system.cpu.commit.op_class_0::MemRead            1084     19.46%     80.58%
system.cpu.commit.op_class_0::MemWrite           1070     19.21%     99.78%
system.cpu.commit.op_class_0::FloatMemRead            0      0.00%     99.78%
system.cpu.commit.op_class_0::FloatMemWrite           12      0.22%    100.00%
system.cpu.commit.op_class_0::IprAccess             0      0.00%    100.00%
system.cpu.commit.op_class_0::InstPrefetch            0      0.00%    100.00%
system.cpu.commit.op_class_0::total              5571                      
system.cpu.commit.bw_lim_events                    41                      
system.cpu.rob.rob_reads                        23457                      
system.cpu.rob.rob_writes                       17424                      
system.cpu.timesIdled                             219                      
system.cpu.idleCycles                           27964                      
system.cpu.committedInsts                        5562                      
system.cpu.committedOps                          5571                      
system.cpu.cpi                               7.886911                      
system.cpu.cpi_total                         7.886911                      
system.cpu.ipc                               0.126792                      
system.cpu.ipc_total                         0.126792                      
system.cpu.int_regfile_reads                     8883                      
system.cpu.int_regfile_writes                    4471                      
system.cpu.fp_regfile_reads                        12                      
system.cpu.dcache.tags.pwrStateResidencyTicks::UNDEFINED     21932500                      
system.cpu.dcache.tags.replacements                 0                      
system.cpu.dcache.tags.tagsinuse            90.411401                      
system.cpu.dcache.tags.total_refs                2025                      
system.cpu.dcache.tags.sampled_refs               146                      
system.cpu.dcache.tags.avg_refs             13.869863                      
system.cpu.dcache.tags.warmup_cycle            262500                      
system.cpu.dcache.tags.occ_blocks::cpu.data    90.411401                      
system.cpu.dcache.tags.occ_percent::cpu.data     0.022073                      
system.cpu.dcache.tags.occ_percent::total     0.022073                      
system.cpu.dcache.tags.occ_task_id_blocks::1024          146                      
system.cpu.dcache.tags.age_task_id_blocks_1024::0           40                      
system.cpu.dcache.tags.age_task_id_blocks_1024::1          106                      
system.cpu.dcache.tags.occ_task_id_percent::1024     0.035645                      
system.cpu.dcache.tags.tag_accesses              5232                      
system.cpu.dcache.tags.data_accesses             5232                      
system.cpu.dcache.pwrStateResidencyTicks::UNDEFINED     21932500                      
system.cpu.dcache.ReadReq_hits::cpu.data         1320                      
system.cpu.dcache.ReadReq_hits::total            1320                      
system.cpu.dcache.WriteReq_hits::cpu.data          689                      
system.cpu.dcache.WriteReq_hits::total            689                      
system.cpu.dcache.LoadLockedReq_hits::cpu.data            8                      
system.cpu.dcache.LoadLockedReq_hits::total            8                      
system.cpu.dcache.StoreCondReq_hits::cpu.data            8                      
system.cpu.dcache.StoreCondReq_hits::total            8                      
system.cpu.dcache.demand_hits::cpu.data          2009                      
system.cpu.dcache.demand_hits::total             2009                      
system.cpu.dcache.overall_hits::cpu.data         2009                      
system.cpu.dcache.overall_hits::total            2009                      
system.cpu.dcache.ReadReq_misses::cpu.data          130                      
system.cpu.dcache.ReadReq_misses::total           130                      
system.cpu.dcache.WriteReq_misses::cpu.data          385                      
system.cpu.dcache.WriteReq_misses::total          385                      
system.cpu.dcache.LoadLockedReq_misses::cpu.data            3                      
system.cpu.dcache.LoadLockedReq_misses::total            3                      
system.cpu.dcache.demand_misses::cpu.data          515                      
system.cpu.dcache.demand_misses::total            515                      
system.cpu.dcache.overall_misses::cpu.data          515                      
system.cpu.dcache.overall_misses::total           515                      
system.cpu.dcache.ReadReq_miss_latency::cpu.data     10358500                      
system.cpu.dcache.ReadReq_miss_latency::total     10358500                      
system.cpu.dcache.WriteReq_miss_latency::cpu.data     28079981                      
system.cpu.dcache.WriteReq_miss_latency::total     28079981                      
system.cpu.dcache.LoadLockedReq_miss_latency::cpu.data       292500                      
system.cpu.dcache.LoadLockedReq_miss_latency::total       292500                      
system.cpu.dcache.demand_miss_latency::cpu.data     38438481                      
system.cpu.dcache.demand_miss_latency::total     38438481                      
system.cpu.dcache.overall_miss_latency::cpu.data     38438481                      
system.cpu.dcache.overall_miss_latency::total     38438481                      
system.cpu.dcache.ReadReq_accesses::cpu.data         1450                      
system.cpu.dcache.ReadReq_accesses::total         1450                      
system.cpu.dcache.WriteReq_accesses::cpu.data         1074                      
system.cpu.dcache.WriteReq_accesses::total         1074                      
system.cpu.dcache.LoadLockedReq_accesses::cpu.data           11                      
system.cpu.dcache.LoadLockedReq_accesses::total           11                      
system.cpu.dcache.StoreCondReq_accesses::cpu.data            8                      
system.cpu.dcache.StoreCondReq_accesses::total            8                      
system.cpu.dcache.demand_accesses::cpu.data         2524                      
system.cpu.dcache.demand_accesses::total         2524                      
system.cpu.dcache.overall_accesses::cpu.data         2524                      
system.cpu.dcache.overall_accesses::total         2524                      
system.cpu.dcache.ReadReq_miss_rate::cpu.data     0.089655                      
system.cpu.dcache.ReadReq_miss_rate::total     0.089655                      
system.cpu.dcache.WriteReq_miss_rate::cpu.data     0.358473                      
system.cpu.dcache.WriteReq_miss_rate::total     0.358473                      
system.cpu.dcache.LoadLockedReq_miss_rate::cpu.data     0.272727                      
system.cpu.dcache.LoadLockedReq_miss_rate::total     0.272727                      
system.cpu.dcache.demand_miss_rate::cpu.data     0.204041                      
system.cpu.dcache.demand_miss_rate::total     0.204041                      
system.cpu.dcache.overall_miss_rate::cpu.data     0.204041                      
system.cpu.dcache.overall_miss_rate::total     0.204041                      
system.cpu.dcache.ReadReq_avg_miss_latency::cpu.data 79680.769231                      
system.cpu.dcache.ReadReq_avg_miss_latency::total 79680.769231                      
system.cpu.dcache.WriteReq_avg_miss_latency::cpu.data 72935.015584                      
system.cpu.dcache.WriteReq_avg_miss_latency::total 72935.015584                      
system.cpu.dcache.LoadLockedReq_avg_miss_latency::cpu.data        97500                      
system.cpu.dcache.LoadLockedReq_avg_miss_latency::total        97500                      
system.cpu.dcache.demand_avg_miss_latency::cpu.data 74637.827184                      
system.cpu.dcache.demand_avg_miss_latency::total 74637.827184                      
system.cpu.dcache.overall_avg_miss_latency::cpu.data 74637.827184                      
system.cpu.dcache.overall_avg_miss_latency::total 74637.827184                      
system.cpu.dcache.blocked_cycles::no_mshrs         1674                      
system.cpu.dcache.blocked_cycles::no_targets           60                      
system.cpu.dcache.blocked::no_mshrs                27                      
system.cpu.dcache.blocked::no_targets               1                      
system.cpu.dcache.avg_blocked_cycles::no_mshrs           62                      
system.cpu.dcache.avg_blocked_cycles::no_targets           60                      
system.cpu.dcache.ReadReq_mshr_hits::cpu.data           67                      
system.cpu.dcache.ReadReq_mshr_hits::total           67                      
system.cpu.dcache.WriteReq_mshr_hits::cpu.data          303                      
system.cpu.dcache.WriteReq_mshr_hits::total          303                      
system.cpu.dcache.LoadLockedReq_mshr_hits::cpu.data            2                      
system.cpu.dcache.LoadLockedReq_mshr_hits::total            2                      
system.cpu.dcache.demand_mshr_hits::cpu.data          370                      
system.cpu.dcache.demand_mshr_hits::total          370                      
system.cpu.dcache.overall_mshr_hits::cpu.data          370                      
system.cpu.dcache.overall_mshr_hits::total          370                      
system.cpu.dcache.ReadReq_mshr_misses::cpu.data           63                      
system.cpu.dcache.ReadReq_mshr_misses::total           63                      
system.cpu.dcache.WriteReq_mshr_misses::cpu.data           82                      
system.cpu.dcache.WriteReq_mshr_misses::total           82                      
system.cpu.dcache.LoadLockedReq_mshr_misses::cpu.data            1                      
system.cpu.dcache.LoadLockedReq_mshr_misses::total            1                      
system.cpu.dcache.demand_mshr_misses::cpu.data          145                      
system.cpu.dcache.demand_mshr_misses::total          145                      
system.cpu.dcache.overall_mshr_misses::cpu.data          145                      
system.cpu.dcache.overall_mshr_misses::total          145                      
system.cpu.dcache.ReadReq_mshr_miss_latency::cpu.data      6328000                      
system.cpu.dcache.ReadReq_mshr_miss_latency::total      6328000                      
system.cpu.dcache.WriteReq_mshr_miss_latency::cpu.data      7305997                      
system.cpu.dcache.WriteReq_mshr_miss_latency::total      7305997                      
system.cpu.dcache.LoadLockedReq_mshr_miss_latency::cpu.data       107500                      
system.cpu.dcache.LoadLockedReq_mshr_miss_latency::total       107500                      
system.cpu.dcache.demand_mshr_miss_latency::cpu.data     13633997                      
system.cpu.dcache.demand_mshr_miss_latency::total     13633997                      
system.cpu.dcache.overall_mshr_miss_latency::cpu.data     13633997                      
system.cpu.dcache.overall_mshr_miss_latency::total     13633997                      
system.cpu.dcache.ReadReq_mshr_miss_rate::cpu.data     0.043448                      
system.cpu.dcache.ReadReq_mshr_miss_rate::total     0.043448                      
system.cpu.dcache.WriteReq_mshr_miss_rate::cpu.data     0.076350                      
system.cpu.dcache.WriteReq_mshr_miss_rate::total     0.076350                      
system.cpu.dcache.LoadLockedReq_mshr_miss_rate::cpu.data     0.090909                      
system.cpu.dcache.LoadLockedReq_mshr_miss_rate::total     0.090909                      
system.cpu.dcache.demand_mshr_miss_rate::cpu.data     0.057448                      
system.cpu.dcache.demand_mshr_miss_rate::total     0.057448                      
system.cpu.dcache.overall_mshr_miss_rate::cpu.data     0.057448                      
system.cpu.dcache.overall_mshr_miss_rate::total     0.057448                      
system.cpu.dcache.ReadReq_avg_mshr_miss_latency::cpu.data 100444.444444                      
system.cpu.dcache.ReadReq_avg_mshr_miss_latency::total 100444.444444                      
system.cpu.dcache.WriteReq_avg_mshr_miss_latency::cpu.data 89097.524390                      
system.cpu.dcache.WriteReq_avg_mshr_miss_latency::total 89097.524390                      
system.cpu.dcache.LoadLockedReq_avg_mshr_miss_latency::cpu.data       107500                      
system.cpu.dcache.LoadLockedReq_avg_mshr_miss_latency::total       107500                      
system.cpu.dcache.demand_avg_mshr_miss_latency::cpu.data 94027.565517                      
system.cpu.dcache.demand_avg_mshr_miss_latency::total 94027.565517                      
system.cpu.dcache.overall_avg_mshr_miss_latency::cpu.data 94027.565517                      
system.cpu.dcache.overall_avg_mshr_miss_latency::total 94027.565517                      
system.cpu.icache.tags.pwrStateResidencyTicks::UNDEFINED     21932500                      
system.cpu.icache.tags.replacements                 0                      
system.cpu.icache.tags.tagsinuse           149.454195                      
system.cpu.icache.tags.total_refs                 992                      
system.cpu.icache.tags.sampled_refs               290                      
system.cpu.icache.tags.avg_refs              3.420690                      
system.cpu.icache.tags.warmup_cycle             87500                      
system.cpu.icache.tags.occ_blocks::cpu.inst   149.454195                      
system.cpu.icache.tags.occ_percent::cpu.inst     0.072976                      
system.cpu.icache.tags.occ_percent::total     0.072976                      
system.cpu.icache.tags.occ_task_id_blocks::1024          290                      
system.cpu.icache.tags.age_task_id_blocks_1024::0          126                      
system.cpu.icache.tags.age_task_id_blocks_1024::1          164                      
system.cpu.icache.tags.occ_task_id_percent::1024     0.141602                      
system.cpu.icache.tags.tag_accesses              2960                      
system.cpu.icache.tags.data_accesses             2960                      
system.cpu.icache.pwrStateResidencyTicks::UNDEFINED     21932500                      
system.cpu.icache.ReadReq_hits::cpu.inst          992                      
system.cpu.icache.ReadReq_hits::total             992                      
system.cpu.icache.demand_hits::cpu.inst           992                      
system.cpu.icache.demand_hits::total              992                      
system.cpu.icache.overall_hits::cpu.inst          992                      
system.cpu.icache.overall_hits::total             992                      
system.cpu.icache.ReadReq_misses::cpu.inst          343                      
system.cpu.icache.ReadReq_misses::total           343                      
system.cpu.icache.demand_misses::cpu.inst          343                      
system.cpu.icache.demand_misses::total            343                      
system.cpu.icache.overall_misses::cpu.inst          343                      
system.cpu.icache.overall_misses::total           343                      
system.cpu.icache.ReadReq_miss_latency::cpu.inst     28482499                      
system.cpu.icache.ReadReq_miss_latency::total     28482499                      
system.cpu.icache.demand_miss_latency::cpu.inst     28482499                      
system.cpu.icache.demand_miss_latency::total     28482499                      
system.cpu.icache.overall_miss_latency::cpu.inst     28482499                      
system.cpu.icache.overall_miss_latency::total     28482499                      
system.cpu.icache.ReadReq_accesses::cpu.inst         1335                      
system.cpu.icache.ReadReq_accesses::total         1335                      
system.cpu.icache.demand_accesses::cpu.inst         1335                      
system.cpu.icache.demand_accesses::total         1335                      
system.cpu.icache.overall_accesses::cpu.inst         1335                      
system.cpu.icache.overall_accesses::total         1335                      
system.cpu.icache.ReadReq_miss_rate::cpu.inst     0.256929                      
system.cpu.icache.ReadReq_miss_rate::total     0.256929                      
system.cpu.icache.demand_miss_rate::cpu.inst     0.256929                      
system.cpu.icache.demand_miss_rate::total     0.256929                      
system.cpu.icache.overall_miss_rate::cpu.inst     0.256929                      
system.cpu.icache.overall_miss_rate::total     0.256929                      
system.cpu.icache.ReadReq_avg_miss_latency::cpu.inst 83039.355685                      
system.cpu.icache.ReadReq_avg_miss_latency::total 83039.355685                      
system.cpu.icache.demand_avg_miss_latency::cpu.inst 83039.355685                      
system.cpu.icache.demand_avg_miss_latency::total 83039.355685                      
system.cpu.icache.overall_avg_miss_latency::cpu.inst 83039.355685                      
system.cpu.icache.overall_avg_miss_latency::total 83039.355685                      
system.cpu.icache.blocked_cycles::no_mshrs          503                      
system.cpu.icache.blocked_cycles::no_targets            0                      
system.cpu.icache.blocked::no_mshrs                 6                      
system.cpu.icache.blocked::no_targets               0                      
system.cpu.icache.avg_blocked_cycles::no_mshrs    83.833333                      
system.cpu.icache.avg_blocked_cycles::no_targets          nan                      
system.cpu.icache.ReadReq_mshr_hits::cpu.inst           53                      
system.cpu.icache.ReadReq_mshr_hits::total           53                      
system.cpu.icache.demand_mshr_hits::cpu.inst           53                      
system.cpu.icache.demand_mshr_hits::total           53                      
system.cpu.icache.overall_mshr_hits::cpu.inst           53                      
system.cpu.icache.overall_mshr_hits::total           53                      
system.cpu.icache.ReadReq_mshr_misses::cpu.inst          290                      
system.cpu.icache.ReadReq_mshr_misses::total          290                      
system.cpu.icache.demand_mshr_misses::cpu.inst          290                      
system.cpu.icache.demand_mshr_misses::total          290                      
system.cpu.icache.overall_mshr_misses::cpu.inst          290                      
system.cpu.icache.overall_mshr_misses::total          290                      
system.cpu.icache.ReadReq_mshr_miss_latency::cpu.inst     25177499                      
system.cpu.icache.ReadReq_mshr_miss_latency::total     25177499                      
system.cpu.icache.demand_mshr_miss_latency::cpu.inst     25177499                      
system.cpu.icache.demand_mshr_miss_latency::total     25177499                      
system.cpu.icache.overall_mshr_miss_latency::cpu.inst     25177499                      
system.cpu.icache.overall_mshr_miss_latency::total     25177499                      
system.cpu.icache.ReadReq_mshr_miss_rate::cpu.inst     0.217228                      
system.cpu.icache.ReadReq_mshr_miss_rate::total     0.217228                      
system.cpu.icache.demand_mshr_miss_rate::cpu.inst     0.217228                      
system.cpu.icache.demand_mshr_miss_rate::total     0.217228                      
system.cpu.icache.overall_mshr_miss_rate::cpu.inst     0.217228                      
system.cpu.icache.overall_mshr_miss_rate::total     0.217228                      
system.cpu.icache.ReadReq_avg_mshr_miss_latency::cpu.inst 86818.962069                      
system.cpu.icache.ReadReq_avg_mshr_miss_latency::total 86818.962069                      
system.cpu.icache.demand_avg_mshr_miss_latency::cpu.inst 86818.962069                      
system.cpu.icache.demand_avg_mshr_miss_latency::total 86818.962069                      
system.cpu.icache.overall_avg_mshr_miss_latency::cpu.inst 86818.962069                      
system.cpu.icache.overall_avg_mshr_miss_latency::total 86818.962069                      
system.cpu.l2cache.tags.pwrStateResidencyTicks::UNDEFINED     21932500                      
system.cpu.l2cache.tags.replacements                0                      
system.cpu.l2cache.tags.tagsinuse          240.074328                      
system.cpu.l2cache.tags.total_refs                  0                      
system.cpu.l2cache.tags.sampled_refs              436                      
system.cpu.l2cache.tags.avg_refs                    0                      
system.cpu.l2cache.tags.warmup_cycle            77000                      
system.cpu.l2cache.tags.occ_blocks::cpu.inst   149.593030                      
system.cpu.l2cache.tags.occ_blocks::cpu.data    90.481297                      
system.cpu.l2cache.tags.occ_percent::cpu.inst     0.004565                      
system.cpu.l2cache.tags.occ_percent::cpu.data     0.002761                      
system.cpu.l2cache.tags.occ_percent::total     0.007326                      
system.cpu.l2cache.tags.occ_task_id_blocks::1024          436                      
system.cpu.l2cache.tags.age_task_id_blocks_1024::0          165                      
system.cpu.l2cache.tags.age_task_id_blocks_1024::1          271                      
system.cpu.l2cache.tags.occ_task_id_percent::1024     0.013306                      
system.cpu.l2cache.tags.tag_accesses             3924                      
system.cpu.l2cache.tags.data_accesses            3924                      
system.cpu.l2cache.pwrStateResidencyTicks::UNDEFINED     21932500                      
system.cpu.l2cache.ReadExReq_misses::cpu.data           82                      
system.cpu.l2cache.ReadExReq_misses::total           82                      
system.cpu.l2cache.ReadCleanReq_misses::cpu.inst          290                      
system.cpu.l2cache.ReadCleanReq_misses::total          290                      
system.cpu.l2cache.ReadSharedReq_misses::cpu.data           64                      
system.cpu.l2cache.ReadSharedReq_misses::total           64                      
system.cpu.l2cache.demand_misses::cpu.inst          290                      
system.cpu.l2cache.demand_misses::cpu.data          146                      
system.cpu.l2cache.demand_misses::total           436                      
system.cpu.l2cache.overall_misses::cpu.inst          290                      
system.cpu.l2cache.overall_misses::cpu.data          146                      
system.cpu.l2cache.overall_misses::total          436                      
system.cpu.l2cache.ReadExReq_miss_latency::cpu.data      7178500                      
system.cpu.l2cache.ReadExReq_miss_latency::total      7178500                      
system.cpu.l2cache.ReadCleanReq_miss_latency::cpu.inst     24741500                      
system.cpu.l2cache.ReadCleanReq_miss_latency::total     24741500                      
system.cpu.l2cache.ReadSharedReq_miss_latency::cpu.data      6338000                      
system.cpu.l2cache.ReadSharedReq_miss_latency::total      6338000                      
system.cpu.l2cache.demand_miss_latency::cpu.inst     24741500                      
system.cpu.l2cache.demand_miss_latency::cpu.data     13516500                      
system.cpu.l2cache.demand_miss_latency::total     38258000                      
system.cpu.l2cache.overall_miss_latency::cpu.inst     24741500                      
system.cpu.l2cache.overall_miss_latency::cpu.data     13516500                      
system.cpu.l2cache.overall_miss_latency::total     38258000                      
system.cpu.l2cache.ReadExReq_accesses::cpu.data           82                      
system.cpu.l2cache.ReadExReq_accesses::total           82                      
system.cpu.l2cache.ReadCleanReq_accesses::cpu.inst          290                      
system.cpu.l2cache.ReadCleanReq_accesses::total          290                      
system.cpu.l2cache.ReadSharedReq_accesses::cpu.data           64                      
system.cpu.l2cache.ReadSharedReq_accesses::total           64                      
system.cpu.l2cache.demand_accesses::cpu.inst          290                      
system.cpu.l2cache.demand_accesses::cpu.data          146                      
system.cpu.l2cache.demand_accesses::total          436                      
system.cpu.l2cache.overall_accesses::cpu.inst          290                      
system.cpu.l2cache.overall_accesses::cpu.data          146                      
system.cpu.l2cache.overall_accesses::total          436                      
system.cpu.l2cache.ReadExReq_miss_rate::cpu.data            1                      
system.cpu.l2cache.ReadExReq_miss_rate::total            1                      
system.cpu.l2cache.ReadCleanReq_miss_rate::cpu.inst            1                      
system.cpu.l2cache.ReadCleanReq_miss_rate::total            1                      
system.cpu.l2cache.ReadSharedReq_miss_rate::cpu.data            1                      
system.cpu.l2cache.ReadSharedReq_miss_rate::total            1                      
system.cpu.l2cache.demand_miss_rate::cpu.inst            1                      
system.cpu.l2cache.demand_miss_rate::cpu.data            1                      
system.cpu.l2cache.demand_miss_rate::total            1                      
system.cpu.l2cache.overall_miss_rate::cpu.inst            1                      
system.cpu.l2cache.overall_miss_rate::cpu.data            1                      
system.cpu.l2cache.overall_miss_rate::total            1                      
system.cpu.l2cache.ReadExReq_avg_miss_latency::cpu.data 87542.682927                      
system.cpu.l2cache.ReadExReq_avg_miss_latency::total 87542.682927                      
system.cpu.l2cache.ReadCleanReq_avg_miss_latency::cpu.inst 85315.517241                      
system.cpu.l2cache.ReadCleanReq_avg_miss_latency::total 85315.517241                      
system.cpu.l2cache.ReadSharedReq_avg_miss_latency::cpu.data 99031.250000                      
system.cpu.l2cache.ReadSharedReq_avg_miss_latency::total 99031.250000                      
system.cpu.l2cache.demand_avg_miss_latency::cpu.inst 85315.517241                      
system.cpu.l2cache.demand_avg_miss_latency::cpu.data 92578.767123                      
system.cpu.l2cache.demand_avg_miss_latency::total 87747.706422                      
system.cpu.l2cache.overall_avg_miss_latency::cpu.inst 85315.517241                      
system.cpu.l2cache.overall_avg_miss_latency::cpu.data 92578.767123                      
system.cpu.l2cache.overall_avg_miss_latency::total 87747.706422                      
system.cpu.l2cache.blocked_cycles::no_mshrs            0                      
system.cpu.l2cache.blocked_cycles::no_targets            0                      
system.cpu.l2cache.blocked::no_mshrs                0                      
system.cpu.l2cache.blocked::no_targets              0                      
system.cpu.l2cache.avg_blocked_cycles::no_mshrs          nan                      
system.cpu.l2cache.avg_blocked_cycles::no_targets          nan                      
system.cpu.l2cache.ReadExReq_mshr_misses::cpu.data           82                      
system.cpu.l2cache.ReadExReq_mshr_misses::total           82                      
system.cpu.l2cache.ReadCleanReq_mshr_misses::cpu.inst          290                      
system.cpu.l2cache.ReadCleanReq_mshr_misses::total          290                      
system.cpu.l2cache.ReadSharedReq_mshr_misses::cpu.data           64                      
system.cpu.l2cache.ReadSharedReq_mshr_misses::total           64                      
system.cpu.l2cache.demand_mshr_misses::cpu.inst          290                      
system.cpu.l2cache.demand_mshr_misses::cpu.data          146                      
system.cpu.l2cache.demand_mshr_misses::total          436                      
system.cpu.l2cache.overall_mshr_misses::cpu.inst          290                      
system.cpu.l2cache.overall_mshr_misses::cpu.data          146                      
system.cpu.l2cache.overall_mshr_misses::total          436                      
system.cpu.l2cache.ReadExReq_mshr_miss_latency::cpu.data      6358500                      
system.cpu.l2cache.ReadExReq_mshr_miss_latency::total      6358500                      
system.cpu.l2cache.ReadCleanReq_mshr_miss_latency::cpu.inst     21841500                      
system.cpu.l2cache.ReadCleanReq_mshr_miss_latency::total     21841500                      
system.cpu.l2cache.ReadSharedReq_mshr_miss_latency::cpu.data      5698000                      
system.cpu.l2cache.ReadSharedReq_mshr_miss_latency::total      5698000                      
system.cpu.l2cache.demand_mshr_miss_latency::cpu.inst     21841500                      
system.cpu.l2cache.demand_mshr_miss_latency::cpu.data     12056500                      
system.cpu.l2cache.demand_mshr_miss_latency::total     33898000                      
system.cpu.l2cache.overall_mshr_miss_latency::cpu.inst     21841500                      
system.cpu.l2cache.overall_mshr_miss_latency::cpu.data     12056500                      
system.cpu.l2cache.overall_mshr_miss_latency::total     33898000                      
system.cpu.l2cache.ReadExReq_mshr_miss_rate::cpu.data            1                      
system.cpu.l2cache.ReadExReq_mshr_miss_rate::total            1                      
system.cpu.l2cache.ReadCleanReq_mshr_miss_rate::cpu.inst            1                      
system.cpu.l2cache.ReadCleanReq_mshr_miss_rate::total            1                      
system.cpu.l2cache.ReadSharedReq_mshr_miss_rate::cpu.data            1                      
system.cpu.l2cache.ReadSharedReq_mshr_miss_rate::total            1                      
system.cpu.l2cache.demand_mshr_miss_rate::cpu.inst            1                      
system.cpu.l2cache.demand_mshr_miss_rate::cpu.data            1                      
system.cpu.l2cache.demand_mshr_miss_rate::total            1                      
system.cpu.l2cache.overall_mshr_miss_rate::cpu.inst            1                      
system.cpu.l2cache.overall_mshr_miss_rate::cpu.data            1                      
system.cpu.l2cache.overall_mshr_miss_rate::total            1                      
system.cpu.l2cache.ReadExReq_avg_mshr_miss_latency::cpu.data 77542.682927                      
system.cpu.l2cache.ReadExReq_avg_mshr_miss_latency::total 77542.682927                      
system.cpu.l2cache.ReadCleanReq_avg_mshr_miss_latency::cpu.inst 75315.517241                      
system.cpu.l2cache.ReadCleanReq_avg_mshr_miss_latency::total 75315.517241                      
system.cpu.l2cache.ReadSharedReq_avg_mshr_miss_latency::cpu.data 89031.250000                      
system.cpu.l2cache.ReadSharedReq_avg_mshr_miss_latency::total 89031.250000                      
system.cpu.l2cache.demand_avg_mshr_miss_latency::cpu.inst 75315.517241                      
system.cpu.l2cache.demand_avg_mshr_miss_latency::cpu.data 82578.767123                      
system.cpu.l2cache.demand_avg_mshr_miss_latency::total 77747.706422                      
system.cpu.l2cache.overall_avg_mshr_miss_latency::cpu.inst 75315.517241                      
system.cpu.l2cache.overall_avg_mshr_miss_latency::cpu.data 82578.767123                      
system.cpu.l2cache.overall_avg_mshr_miss_latency::total 77747.706422                      
system.cpu.toL2Bus.snoop_filter.tot_requests          436                      
system.cpu.toL2Bus.snoop_filter.hit_single_requests            0                      
system.cpu.toL2Bus.snoop_filter.hit_multi_requests            0                      
system.cpu.toL2Bus.snoop_filter.tot_snoops            0                      
system.cpu.toL2Bus.snoop_filter.hit_single_snoops            0                      
system.cpu.toL2Bus.snoop_filter.hit_multi_snoops            0                      
system.cpu.toL2Bus.pwrStateResidencyTicks::UNDEFINED     21932500                      
system.cpu.toL2Bus.trans_dist::ReadResp           354                      
system.cpu.toL2Bus.trans_dist::ReadExReq           82                      
system.cpu.toL2Bus.trans_dist::ReadExResp           82                      
system.cpu.toL2Bus.trans_dist::ReadCleanReq          290                      
system.cpu.toL2Bus.trans_dist::ReadSharedReq           64                      
system.cpu.toL2Bus.pkt_count_system.cpu.icache.mem_side::system.cpu.l2cache.cpu_side          580                      
system.cpu.toL2Bus.pkt_count_system.cpu.dcache.mem_side::system.cpu.l2cache.cpu_side          292                      
system.cpu.toL2Bus.pkt_count::total               872                      
system.cpu.toL2Bus.pkt_size_system.cpu.icache.mem_side::system.cpu.l2cache.cpu_side        18560                      
system.cpu.toL2Bus.pkt_size_system.cpu.dcache.mem_side::system.cpu.l2cache.cpu_side         9344                      
system.cpu.toL2Bus.pkt_size::total              27904                      
system.cpu.toL2Bus.snoops                           0                      
system.cpu.toL2Bus.snoopTraffic                     0                      
system.cpu.toL2Bus.snoop_fanout::samples          436                      
system.cpu.toL2Bus.snoop_fanout::mean               0                      
system.cpu.toL2Bus.snoop_fanout::stdev              0                      
system.cpu.toL2Bus.snoop_fanout::underflows            0      0.00%      0.00%
system.cpu.toL2Bus.snoop_fanout::0                436    100.00%    100.00%
system.cpu.toL2Bus.snoop_fanout::1                  0      0.00%    100.00%
system.cpu.toL2Bus.snoop_fanout::2                  0      0.00%    100.00%
system.cpu.toL2Bus.snoop_fanout::overflows            0      0.00%    100.00%
system.cpu.toL2Bus.snoop_fanout::min_value            0                      
system.cpu.toL2Bus.snoop_fanout::max_value            0                      
system.cpu.toL2Bus.snoop_fanout::total            436                      
system.cpu.toL2Bus.reqLayer0.occupancy         218000                      
system.cpu.toL2Bus.reqLayer0.utilization          1.0                      
system.cpu.toL2Bus.respLayer0.occupancy        435000                      
system.cpu.toL2Bus.respLayer0.utilization          2.0                      
system.cpu.toL2Bus.respLayer1.occupancy        219000                      
system.cpu.toL2Bus.respLayer1.utilization          1.0                      
system.membus.snoop_filter.tot_requests           436                      
system.membus.snoop_filter.hit_single_requests            0                      
system.membus.snoop_filter.hit_multi_requests            0                      
system.membus.snoop_filter.tot_snoops               0                      
system.membus.snoop_filter.hit_single_snoops            0                      
system.membus.snoop_filter.hit_multi_snoops            0                      
system.membus.pwrStateResidencyTicks::UNDEFINED     21932500                      
system.membus.trans_dist::ReadResp                354                      
system.membus.trans_dist::ReadExReq                82                      
system.membus.trans_dist::ReadExResp               82                      
system.membus.trans_dist::ReadSharedReq           354                      
system.membus.pkt_count_system.cpu.l2cache.mem_side::system.physmem.port          872                      
system.membus.pkt_count::total                    872                      
system.membus.pkt_size_system.cpu.l2cache.mem_side::system.physmem.port        27904                      
system.membus.pkt_size::total                   27904                      
system.membus.snoops                                0                      
system.membus.snoopTraffic                          0                      
system.membus.snoop_fanout::samples               436                      
system.membus.snoop_fanout::mean                    0                      
system.membus.snoop_fanout::stdev                   0                      
system.membus.snoop_fanout::underflows              0      0.00%      0.00%
system.membus.snoop_fanout::0                     436    100.00%    100.00%
system.membus.snoop_fanout::1                       0      0.00%    100.00%
system.membus.snoop_fanout::overflows               0      0.00%    100.00%
system.membus.snoop_fanout::min_value               0                      
system.membus.snoop_fanout::max_value               0                      
system.membus.snoop_fanout::total                 436                      
system.membus.reqLayer0.occupancy              519500                      
system.membus.reqLayer0.utilization               2.4                      
system.membus.respLayer1.occupancy            2307750                      
system.membus.respLayer1.utilization             10.5                      

---------- End Simulation Statistics   ----------
