Redirecting stdout to build/RISCV/tests/opt/quick/se/02.insttest/riscv/linux-rv64m/simple-timing-ruby/simout
Redirecting stderr to build/RISCV/tests/opt/quick/se/02.insttest/riscv/linux-rv64m/simple-timing-ruby/simerr
gem5 Simulator System.  http://gem5.org
gem5 is copyrighted software; use the --copyright option for details.

gem5 compiled Apr 12 2018 13:47:37
gem5 started Apr 12 2018 13:56:56
gem5 executing on localvm.commsolid.com, pid 4932
command line: /home/rscheffel/projects/gem5_cc/build/RISCV/gem5.opt -d build/RISCV/tests/opt/quick/se/02.insttest/riscv/linux-rv64m/simple-timing-ruby --stats-file 'text://stats.txt?desc=False' -re /home/rscheffel/projects/gem5_cc/tests/testing/../run.py quick/se/02.insttest/riscv/linux-rv64m/simple-timing-ruby

Global frequency set at 1000000000 ticks per second
mul: PASS
mul, overflow: PASS
mulh: PASS
mulh, negative: PASS
mulh, all bits set: PASS
mulhsu, all bits set: PASS
mulhsu: PASS
mulhu: PASS
mulhu, all bits set: PASS
div: PASS
div/0: PASS
div, overflow: PASS
divu: PASS
divu/0: PASS
divu, "overflow": PASS
rem: PASS
rem/0: PASS
rem, overflow: PASS
remu: PASS
remu/0: PASS
remu, "overflow": PASS
mulw, truncate: PASS
mulw, overflow: PASS
divw, truncate: PASS
divw/0: PASS
divw, overflow: PASS
divuw, truncate: PASS
divuw/0: PASS
divuw, "overflow": PASS
divuw, sign extend: PASS
remw, truncate: PASS
remw/0: PASS
remw, overflow: PASS
remuw, truncate: PASS
remuw/0: PASS
remuw, "overflow": PASS
remuw, sign extend: PASS
Exiting @ tick 1877994 because exiting with last active thread context
