
---------- Begin Simulation Statistics ----------
sim_seconds                                  0.001878                      
sim_ticks                                     1877994                      
final_tick                                    1877994                      
sim_freq                                   1000000000                      
host_inst_rate                                  44147                      
host_op_rate                                    44234                      
host_tick_rate                                 771282                      
host_mem_usage                                 569384                      
host_seconds                                     2.44                      
sim_insts                                      107492                      
sim_ops                                        107704                      
system.voltage_domain.voltage                       1                      
system.clk_domain.clock                             1                      
system.mem_ctrls.pwrStateResidencyTicks::UNDEFINED      1877994                      
system.mem_ctrls.bytes_read::ruby.dir_cntrl0      1875008                      
system.mem_ctrls.bytes_read::total            1875008                      
system.mem_ctrls.bytes_written::ruby.dir_cntrl0      1874752                      
system.mem_ctrls.bytes_written::total         1874752                      
system.mem_ctrls.num_reads::ruby.dir_cntrl0        29297                      
system.mem_ctrls.num_reads::total               29297                      
system.mem_ctrls.num_writes::ruby.dir_cntrl0        29293                      
system.mem_ctrls.num_writes::total              29293                      
system.mem_ctrls.bw_read::ruby.dir_cntrl0    998410006                      
system.mem_ctrls.bw_read::total             998410006                      
system.mem_ctrls.bw_write::ruby.dir_cntrl0    998273690                      
system.mem_ctrls.bw_write::total            998273690                      
system.mem_ctrls.bw_total::ruby.dir_cntrl0   1996683695                      
system.mem_ctrls.bw_total::total           1996683695                      
system.mem_ctrls.readReqs                       29297                      
system.mem_ctrls.writeReqs                      29293                      
system.mem_ctrls.readBursts                     29297                      
system.mem_ctrls.writeBursts                    29293                      
system.mem_ctrls.bytesReadDRAM                 814912                      
system.mem_ctrls.bytesReadWrQ                 1060096                      
system.mem_ctrls.bytesWritten                  857344                      
system.mem_ctrls.bytesReadSys                 1875008                      
system.mem_ctrls.bytesWrittenSys              1874752                      
system.mem_ctrls.servicedByWrQ                  16564                      
system.mem_ctrls.mergedWrBursts                 15867                      
system.mem_ctrls.neitherReadNorWriteReqs            0                      
system.mem_ctrls.perBankRdBursts::0               798                      
system.mem_ctrls.perBankRdBursts::1               384                      
system.mem_ctrls.perBankRdBursts::2               776                      
system.mem_ctrls.perBankRdBursts::3              1155                      
system.mem_ctrls.perBankRdBursts::4                30                      
system.mem_ctrls.perBankRdBursts::5               164                      
system.mem_ctrls.perBankRdBursts::6               199                      
system.mem_ctrls.perBankRdBursts::7               307                      
system.mem_ctrls.perBankRdBursts::8               419                      
system.mem_ctrls.perBankRdBursts::9              1551                      
system.mem_ctrls.perBankRdBursts::10             1483                      
system.mem_ctrls.perBankRdBursts::11             1174                      
system.mem_ctrls.perBankRdBursts::12             1051                      
system.mem_ctrls.perBankRdBursts::13             1854                      
system.mem_ctrls.perBankRdBursts::14             1242                      
system.mem_ctrls.perBankRdBursts::15              146                      
system.mem_ctrls.perBankWrBursts::0               817                      
system.mem_ctrls.perBankWrBursts::1               409                      
system.mem_ctrls.perBankWrBursts::2               797                      
system.mem_ctrls.perBankWrBursts::3              1218                      
system.mem_ctrls.perBankWrBursts::4                30                      
system.mem_ctrls.perBankWrBursts::5               168                      
system.mem_ctrls.perBankWrBursts::6               201                      
system.mem_ctrls.perBankWrBursts::7               310                      
system.mem_ctrls.perBankWrBursts::8               439                      
system.mem_ctrls.perBankWrBursts::9              1655                      
system.mem_ctrls.perBankWrBursts::10             1505                      
system.mem_ctrls.perBankWrBursts::11             1248                      
system.mem_ctrls.perBankWrBursts::12             1103                      
system.mem_ctrls.perBankWrBursts::13             2075                      
system.mem_ctrls.perBankWrBursts::14             1280                      
system.mem_ctrls.perBankWrBursts::15              141                      
system.mem_ctrls.numRdRetry                         0                      
system.mem_ctrls.numWrRetry                         0                      
system.mem_ctrls.totGap                       1877908                      
system.mem_ctrls.readPktSize::0                     0                      
system.mem_ctrls.readPktSize::1                     0                      
system.mem_ctrls.readPktSize::2                     0                      
system.mem_ctrls.readPktSize::3                     0                      
system.mem_ctrls.readPktSize::4                     0                      
system.mem_ctrls.readPktSize::5                     0                      
system.mem_ctrls.readPktSize::6                 29297                      
system.mem_ctrls.writePktSize::0                    0                      
system.mem_ctrls.writePktSize::1                    0                      
system.mem_ctrls.writePktSize::2                    0                      
system.mem_ctrls.writePktSize::3                    0                      
system.mem_ctrls.writePktSize::4                    0                      
system.mem_ctrls.writePktSize::5                    0                      
system.mem_ctrls.writePktSize::6                29293                      
system.mem_ctrls.rdQLenPdf::0                   12733                      
system.mem_ctrls.rdQLenPdf::1                       0                      
system.mem_ctrls.rdQLenPdf::2                       0                      
system.mem_ctrls.rdQLenPdf::3                       0                      
system.mem_ctrls.rdQLenPdf::4                       0                      
system.mem_ctrls.rdQLenPdf::5                       0                      
system.mem_ctrls.rdQLenPdf::6                       0                      
system.mem_ctrls.rdQLenPdf::7                       0                      
system.mem_ctrls.rdQLenPdf::8                       0                      
system.mem_ctrls.rdQLenPdf::9                       0                      
system.mem_ctrls.rdQLenPdf::10                      0                      
system.mem_ctrls.rdQLenPdf::11                      0                      
system.mem_ctrls.rdQLenPdf::12                      0                      
system.mem_ctrls.rdQLenPdf::13                      0                      
system.mem_ctrls.rdQLenPdf::14                      0                      
system.mem_ctrls.rdQLenPdf::15                      0                      
system.mem_ctrls.rdQLenPdf::16                      0                      
system.mem_ctrls.rdQLenPdf::17                      0                      
system.mem_ctrls.rdQLenPdf::18                      0                      
system.mem_ctrls.rdQLenPdf::19                      0                      
system.mem_ctrls.rdQLenPdf::20                      0                      
system.mem_ctrls.rdQLenPdf::21                      0                      
system.mem_ctrls.rdQLenPdf::22                      0                      
system.mem_ctrls.rdQLenPdf::23                      0                      
system.mem_ctrls.rdQLenPdf::24                      0                      
system.mem_ctrls.rdQLenPdf::25                      0                      
system.mem_ctrls.rdQLenPdf::26                      0                      
system.mem_ctrls.rdQLenPdf::27                      0                      
system.mem_ctrls.rdQLenPdf::28                      0                      
system.mem_ctrls.rdQLenPdf::29                      0                      
system.mem_ctrls.rdQLenPdf::30                      0                      
system.mem_ctrls.rdQLenPdf::31                      0                      
system.mem_ctrls.wrQLenPdf::0                       1                      
system.mem_ctrls.wrQLenPdf::1                       1                      
system.mem_ctrls.wrQLenPdf::2                       1                      
system.mem_ctrls.wrQLenPdf::3                       1                      
system.mem_ctrls.wrQLenPdf::4                       1                      
system.mem_ctrls.wrQLenPdf::5                       1                      
system.mem_ctrls.wrQLenPdf::6                       1                      
system.mem_ctrls.wrQLenPdf::7                       1                      
system.mem_ctrls.wrQLenPdf::8                       1                      
system.mem_ctrls.wrQLenPdf::9                       1                      
system.mem_ctrls.wrQLenPdf::10                      1                      
system.mem_ctrls.wrQLenPdf::11                      1                      
system.mem_ctrls.wrQLenPdf::12                      1                      
system.mem_ctrls.wrQLenPdf::13                      1                      
system.mem_ctrls.wrQLenPdf::14                      1                      
system.mem_ctrls.wrQLenPdf::15                    124                      
system.mem_ctrls.wrQLenPdf::16                    146                      
system.mem_ctrls.wrQLenPdf::17                    720                      
system.mem_ctrls.wrQLenPdf::18                    827                      
system.mem_ctrls.wrQLenPdf::19                    848                      
system.mem_ctrls.wrQLenPdf::20                    863                      
system.mem_ctrls.wrQLenPdf::21                    878                      
system.mem_ctrls.wrQLenPdf::22                    846                      
system.mem_ctrls.wrQLenPdf::23                    817                      
system.mem_ctrls.wrQLenPdf::24                    816                      
system.mem_ctrls.wrQLenPdf::25                    816                      
system.mem_ctrls.wrQLenPdf::26                    816                      
system.mem_ctrls.wrQLenPdf::27                    816                      
system.mem_ctrls.wrQLenPdf::28                    816                      
system.mem_ctrls.wrQLenPdf::29                    816                      
system.mem_ctrls.wrQLenPdf::30                    816                      
system.mem_ctrls.wrQLenPdf::31                    815                      
system.mem_ctrls.wrQLenPdf::32                    815                      
system.mem_ctrls.wrQLenPdf::33                      0                      
system.mem_ctrls.wrQLenPdf::34                      0                      
system.mem_ctrls.wrQLenPdf::35                      0                      
system.mem_ctrls.wrQLenPdf::36                      0                      
system.mem_ctrls.wrQLenPdf::37                      0                      
system.mem_ctrls.wrQLenPdf::38                      0                      
system.mem_ctrls.wrQLenPdf::39                      0                      
system.mem_ctrls.wrQLenPdf::40                      0                      
system.mem_ctrls.wrQLenPdf::41                      0                      
system.mem_ctrls.wrQLenPdf::42                      0                      
system.mem_ctrls.wrQLenPdf::43                      0                      
system.mem_ctrls.wrQLenPdf::44                      0                      
system.mem_ctrls.wrQLenPdf::45                      0                      
system.mem_ctrls.wrQLenPdf::46                      0                      
system.mem_ctrls.wrQLenPdf::47                      0                      
system.mem_ctrls.wrQLenPdf::48                      0                      
system.mem_ctrls.wrQLenPdf::49                      0                      
system.mem_ctrls.wrQLenPdf::50                      0                      
system.mem_ctrls.wrQLenPdf::51                      0                      
system.mem_ctrls.wrQLenPdf::52                      0                      
system.mem_ctrls.wrQLenPdf::53                      0                      
system.mem_ctrls.wrQLenPdf::54                      0                      
system.mem_ctrls.wrQLenPdf::55                      0                      
system.mem_ctrls.wrQLenPdf::56                      0                      
system.mem_ctrls.wrQLenPdf::57                      0                      
system.mem_ctrls.wrQLenPdf::58                      0                      
system.mem_ctrls.wrQLenPdf::59                      0                      
system.mem_ctrls.wrQLenPdf::60                      0                      
system.mem_ctrls.wrQLenPdf::61                      0                      
system.mem_ctrls.wrQLenPdf::62                      0                      
system.mem_ctrls.wrQLenPdf::63                      0                      
system.mem_ctrls.bytesPerActivate::samples         5180                      
system.mem_ctrls.bytesPerActivate::mean    322.594595                      
system.mem_ctrls.bytesPerActivate::gmean   218.826176                      
system.mem_ctrls.bytesPerActivate::stdev   289.157553                      
system.mem_ctrls.bytesPerActivate::0-127         1119     21.60%     21.60%
system.mem_ctrls.bytesPerActivate::128-255         1542     29.77%     51.37%
system.mem_ctrls.bytesPerActivate::256-383          857     16.54%     67.92%
system.mem_ctrls.bytesPerActivate::384-511          508      9.81%     77.72%
system.mem_ctrls.bytesPerActivate::512-639          300      5.79%     83.51%
system.mem_ctrls.bytesPerActivate::640-767          198      3.82%     87.34%
system.mem_ctrls.bytesPerActivate::768-895          145      2.80%     90.14%
system.mem_ctrls.bytesPerActivate::896-1023          139      2.68%     92.82%
system.mem_ctrls.bytesPerActivate::1024-1151          372      7.18%    100.00%
system.mem_ctrls.bytesPerActivate::total         5180                      
system.mem_ctrls.rdPerTurnAround::samples          815                      
system.mem_ctrls.rdPerTurnAround::mean      15.601227                      
system.mem_ctrls.rdPerTurnAround::gmean     15.523104                      
system.mem_ctrls.rdPerTurnAround::stdev      1.615876                      
system.mem_ctrls.rdPerTurnAround::12-13            58      7.12%      7.12%
system.mem_ctrls.rdPerTurnAround::14-15           336     41.23%     48.34%
system.mem_ctrls.rdPerTurnAround::16-17           343     42.09%     90.43%
system.mem_ctrls.rdPerTurnAround::18-19            71      8.71%     99.14%
system.mem_ctrls.rdPerTurnAround::20-21             6      0.74%     99.88%
system.mem_ctrls.rdPerTurnAround::34-35             1      0.12%    100.00%
system.mem_ctrls.rdPerTurnAround::total           815                      
system.mem_ctrls.wrPerTurnAround::samples          815                      
system.mem_ctrls.wrPerTurnAround::mean      16.436810                      
system.mem_ctrls.wrPerTurnAround::gmean     16.409992                      
system.mem_ctrls.wrPerTurnAround::stdev      0.974172                      
system.mem_ctrls.wrPerTurnAround::16              668     81.96%     81.96%
system.mem_ctrls.wrPerTurnAround::17               12      1.47%     83.44%
system.mem_ctrls.wrPerTurnAround::18               64      7.85%     91.29%
system.mem_ctrls.wrPerTurnAround::19               68      8.34%     99.63%
system.mem_ctrls.wrPerTurnAround::20                3      0.37%    100.00%
system.mem_ctrls.wrPerTurnAround::total           815                      
system.mem_ctrls.totQLat                       248394                      
system.mem_ctrls.totMemAccLat                  490321                      
system.mem_ctrls.totBusLat                      63665                      
system.mem_ctrls.avgQLat                        19.51                      
system.mem_ctrls.avgBusLat                       5.00                      
system.mem_ctrls.avgMemAccLat                   38.51                      
system.mem_ctrls.avgRdBW                       433.93                      
system.mem_ctrls.avgWrBW                       456.52                      
system.mem_ctrls.avgRdBWSys                    998.41                      
system.mem_ctrls.avgWrBWSys                    998.27                      
system.mem_ctrls.peakBW                      12800.00                      
system.mem_ctrls.busUtil                         6.96                      
system.mem_ctrls.busUtilRead                     3.39                      
system.mem_ctrls.busUtilWrite                    3.57                      
system.mem_ctrls.avgRdQLen                       1.00                      
system.mem_ctrls.avgWrQLen                      26.08                      
system.mem_ctrls.readRowHits                     8878                      
system.mem_ctrls.writeRowHits                   12065                      
system.mem_ctrls.readRowHitRate                 69.72                      
system.mem_ctrls.writeRowHitRate                89.86                      
system.mem_ctrls.avgGap                         32.05                      
system.mem_ctrls.pageHitRate                    80.06                      
system.mem_ctrls_0.actEnergy                  9489060                      
system.mem_ctrls_0.preEnergy                  5131392                      
system.mem_ctrls_0.readEnergy                43559712                      
system.mem_ctrls_0.writeEnergy               32990400                      
system.mem_ctrls_0.refreshEnergy         141367200.000000                      
system.mem_ctrls_0.actBackEnergy            194810040                      
system.mem_ctrls_0.preBackEnergy              3588480                      
system.mem_ctrls_0.actPowerDownEnergy       535785864                      
system.mem_ctrls_0.prePowerDownEnergy        52613376                      
system.mem_ctrls_0.selfRefreshEnergy         34381680                      
system.mem_ctrls_0.totalEnergy             1053717204                      
system.mem_ctrls_0.averagePower            561.086566                      
system.mem_ctrls_0.totalIdleTime              1441397                      
system.mem_ctrls_0.memoryStateTime::IDLE         2830                      
system.mem_ctrls_0.memoryStateTime::REF         59836                      
system.mem_ctrls_0.memoryStateTime::SREF       129451                      
system.mem_ctrls_0.memoryStateTime::PRE_PDN       137014                      
system.mem_ctrls_0.memoryStateTime::ACT        373894                      
system.mem_ctrls_0.memoryStateTime::ACT_PDN      1174969                      
system.mem_ctrls_1.actEnergy                 27538980                      
system.mem_ctrls_1.preEnergy                 14884128                      
system.mem_ctrls_1.readEnergy               101902080                      
system.mem_ctrls_1.writeEnergy               78892992                      
system.mem_ctrls_1.refreshEnergy         149357520.000000                      
system.mem_ctrls_1.actBackEnergy            222594576                      
system.mem_ctrls_1.preBackEnergy              3635712                      
system.mem_ctrls_1.actPowerDownEnergy       571608312                      
system.mem_ctrls_1.prePowerDownEnergy        44096256                      
system.mem_ctrls_1.selfRefreshEnergy          5093520                      
system.mem_ctrls_1.totalEnergy             1219604076                      
system.mem_ctrls_1.averagePower            649.418516                      
system.mem_ctrls_1.totalIdleTime              1380257                      
system.mem_ctrls_1.memoryStateTime::IDLE         2410                      
system.mem_ctrls_1.memoryStateTime::REF         63210                      
system.mem_ctrls_1.memoryStateTime::SREF        12019                      
system.mem_ctrls_1.memoryStateTime::PRE_PDN       114834                      
system.mem_ctrls_1.memoryStateTime::ACT        431994                      
system.mem_ctrls_1.memoryStateTime::ACT_PDN      1253527                      
system.pwrStateResidencyTicks::UNDEFINED      1877994                      
system.cpu.clk_domain.clock                         1                      
system.cpu.dtb.read_hits                            0                      
system.cpu.dtb.read_misses                          0                      
system.cpu.dtb.read_accesses                        0                      
system.cpu.dtb.write_hits                           0                      
system.cpu.dtb.write_misses                         0                      
system.cpu.dtb.write_accesses                       0                      
system.cpu.dtb.hits                                 0                      
system.cpu.dtb.misses                               0                      
system.cpu.dtb.accesses                             0                      
system.cpu.itb.read_hits                            0                      
system.cpu.itb.read_misses                          0                      
system.cpu.itb.read_accesses                        0                      
system.cpu.itb.write_hits                           0                      
system.cpu.itb.write_misses                         0                      
system.cpu.itb.write_accesses                       0                      
system.cpu.itb.hits                                 0                      
system.cpu.itb.misses                               0                      
system.cpu.itb.accesses                             0                      
system.cpu.workload.numSyscalls                    45                      
system.cpu.pwrStateResidencyTicks::ON         1877994                      
system.cpu.numCycles                          1877994                      
system.cpu.numWorkItemsStarted                      0                      
system.cpu.numWorkItemsCompleted                    0                      
system.cpu.committedInsts                      107492                      
system.cpu.committedOps                        107704                      
system.cpu.num_int_alu_accesses                107118                      
system.cpu.num_fp_alu_accesses                     12                      
system.cpu.num_vec_alu_accesses                     0                      
system.cpu.num_func_calls                        6216                      
system.cpu.num_conditional_control_insts        17628                      
system.cpu.num_int_insts                       107118                      
system.cpu.num_fp_insts                            12                      
system.cpu.num_vec_insts                            0                      
system.cpu.num_int_register_reads              134265                      
system.cpu.num_int_register_writes              70908                      
system.cpu.num_fp_register_reads                   12                      
system.cpu.num_fp_register_writes                   0                      
system.cpu.num_vec_register_reads                   0                      
system.cpu.num_vec_register_writes                  0                      
system.cpu.num_mem_refs                         41609                      
system.cpu.num_load_insts                       25268                      
system.cpu.num_store_insts                      16341                      
system.cpu.num_idle_cycles                          0                      
system.cpu.num_busy_cycles                    1877994                      
system.cpu.not_idle_fraction                        1                      
system.cpu.idle_fraction                            0                      
system.cpu.Branches                             23844                      
system.cpu.op_class::No_OpClass                    49      0.05%      0.05%
system.cpu.op_class::IntAlu                     65937     61.19%     61.24%
system.cpu.op_class::IntMult                      124      0.12%     61.36%
system.cpu.op_class::IntDiv                        30      0.03%     61.38%
system.cpu.op_class::FloatAdd                       0      0.00%     61.38%
system.cpu.op_class::FloatCmp                       0      0.00%     61.38%
system.cpu.op_class::FloatCvt                       0      0.00%     61.38%
system.cpu.op_class::FloatMult                      0      0.00%     61.38%
system.cpu.op_class::FloatMultAcc                   0      0.00%     61.38%
system.cpu.op_class::FloatDiv                       0      0.00%     61.38%
system.cpu.op_class::FloatMisc                      0      0.00%     61.38%
system.cpu.op_class::FloatSqrt                      0      0.00%     61.38%
system.cpu.op_class::SimdAdd                        0      0.00%     61.38%
system.cpu.op_class::SimdAddAcc                     0      0.00%     61.38%
system.cpu.op_class::SimdAlu                        0      0.00%     61.38%
system.cpu.op_class::SimdCmp                        0      0.00%     61.38%
system.cpu.op_class::SimdCvt                        0      0.00%     61.38%
system.cpu.op_class::SimdMisc                       0      0.00%     61.38%
system.cpu.op_class::SimdMult                       0      0.00%     61.38%
system.cpu.op_class::SimdMultAcc                    0      0.00%     61.38%
system.cpu.op_class::SimdShift                      0      0.00%     61.38%
system.cpu.op_class::SimdShiftAcc                   0      0.00%     61.38%
system.cpu.op_class::SimdSqrt                       0      0.00%     61.38%
system.cpu.op_class::SimdFloatAdd                   0      0.00%     61.38%
system.cpu.op_class::SimdFloatAlu                   0      0.00%     61.38%
system.cpu.op_class::SimdFloatCmp                   0      0.00%     61.38%
system.cpu.op_class::SimdFloatCvt                   0      0.00%     61.38%
system.cpu.op_class::SimdFloatDiv                   0      0.00%     61.38%
system.cpu.op_class::SimdFloatMisc                  0      0.00%     61.38%
system.cpu.op_class::SimdFloatMult                  0      0.00%     61.38%
system.cpu.op_class::SimdFloatMultAcc               0      0.00%     61.38%
system.cpu.op_class::SimdFloatSqrt                  0      0.00%     61.38%
system.cpu.op_class::MemRead                    25268     23.45%     84.83%
system.cpu.op_class::MemWrite                   16329     15.15%     99.99%
system.cpu.op_class::FloatMemRead                   0      0.00%     99.99%
system.cpu.op_class::FloatMemWrite                 12      0.01%    100.00%
system.cpu.op_class::IprAccess                      0      0.00%    100.00%
system.cpu.op_class::InstPrefetch                   0      0.00%    100.00%
system.cpu.op_class::total                     107749                      
system.ruby.clk_domain.clock                        1                      
system.ruby.pwrStateResidencyTicks::UNDEFINED      1877994                      
system.ruby.delayHist::bucket_size                  1                      
system.ruby.delayHist::max_bucket                   9                      
system.ruby.delayHist::samples                  58590                      
system.ruby.delayHist                    |       58590    100.00%    100.00% |           0      0.00%    100.00% |           0      0.00%    100.00% |           0      0.00%    100.00% |           0      0.00%    100.00% |           0      0.00%    100.00% |           0      0.00%    100.00% |           0      0.00%    100.00% |           0      0.00%    100.00% |           0      0.00%    100.00%
system.ruby.delayHist::total                    58590                      
system.ruby.outstanding_req_hist_seqr::bucket_size            1                      
system.ruby.outstanding_req_hist_seqr::max_bucket            9                      
system.ruby.outstanding_req_hist_seqr::samples       176077                      
system.ruby.outstanding_req_hist_seqr::mean            1                      
system.ruby.outstanding_req_hist_seqr::gmean            1                      
system.ruby.outstanding_req_hist_seqr    |           0      0.00%      0.00% |      176077    100.00%    100.00% |           0      0.00%    100.00% |           0      0.00%    100.00% |           0      0.00%    100.00% |           0      0.00%    100.00% |           0      0.00%    100.00% |           0      0.00%    100.00% |           0      0.00%    100.00% |           0      0.00%    100.00%
system.ruby.outstanding_req_hist_seqr::total       176077                      
system.ruby.latency_hist_seqr::bucket_size           64                      
system.ruby.latency_hist_seqr::max_bucket          639                      
system.ruby.latency_hist_seqr::samples         176076                      
system.ruby.latency_hist_seqr::mean          9.665815                      
system.ruby.latency_hist_seqr::gmean         1.895598                      
system.ruby.latency_hist_seqr::stdev        24.004380                      
system.ruby.latency_hist_seqr            |      163792     93.02%     93.02% |       11463      6.51%     99.53% |         568      0.32%     99.86% |          84      0.05%     99.90% |          90      0.05%     99.96% |          67      0.04%     99.99% |           4      0.00%    100.00% |           0      0.00%    100.00% |           0      0.00%    100.00% |           8      0.00%    100.00%
system.ruby.latency_hist_seqr::total           176076                      
system.ruby.hit_latency_hist_seqr::bucket_size            1                      
system.ruby.hit_latency_hist_seqr::max_bucket            9                      
system.ruby.hit_latency_hist_seqr::samples       146779                      
system.ruby.hit_latency_hist_seqr::mean             1                      
system.ruby.hit_latency_hist_seqr::gmean            1                      
system.ruby.hit_latency_hist_seqr        |           0      0.00%      0.00% |      146779    100.00%    100.00% |           0      0.00%    100.00% |           0      0.00%    100.00% |           0      0.00%    100.00% |           0      0.00%    100.00% |           0      0.00%    100.00% |           0      0.00%    100.00% |           0      0.00%    100.00% |           0      0.00%    100.00%
system.ruby.hit_latency_hist_seqr::total       146779                      
system.ruby.miss_latency_hist_seqr::bucket_size           64                      
system.ruby.miss_latency_hist_seqr::max_bucket          639                      
system.ruby.miss_latency_hist_seqr::samples        29297                      
system.ruby.miss_latency_hist_seqr::mean    53.081851                      
system.ruby.miss_latency_hist_seqr::gmean    46.694358                      
system.ruby.miss_latency_hist_seqr::stdev    34.668107                      
system.ruby.miss_latency_hist_seqr       |       17013     58.07%     58.07% |       11463     39.13%     97.20% |         568      1.94%     99.14% |          84      0.29%     99.42% |          90      0.31%     99.73% |          67      0.23%     99.96% |           4      0.01%     99.97% |           0      0.00%     99.97% |           0      0.00%     99.97% |           8      0.03%    100.00%
system.ruby.miss_latency_hist_seqr::total        29297                      
system.ruby.Directory.incomplete_times_seqr        29296                      
system.ruby.dir_cntrl0.forwardFromDir.avg_buf_msgs     0.015598                      
system.ruby.dir_cntrl0.forwardFromDir.avg_stall_time     0.999853                      
system.ruby.dir_cntrl0.requestToDir.avg_buf_msgs     0.031198                      
system.ruby.dir_cntrl0.requestToDir.avg_stall_time    11.749659                      
system.ruby.dir_cntrl0.responseFromDir.avg_buf_msgs     0.015600                      
system.ruby.dir_cntrl0.responseFromDir.avg_stall_time     0.999963                      
system.ruby.dir_cntrl0.responseFromMemory.avg_buf_msgs     0.031198                      
system.ruby.dir_cntrl0.responseFromMemory.avg_stall_time     0.999964                      
system.ruby.dir_cntrl0.pwrStateResidencyTicks::UNDEFINED      1877994                      
system.ruby.l1_cntrl0.cacheMemory.demand_hits       146779                      
system.ruby.l1_cntrl0.cacheMemory.demand_misses        29297                      
system.ruby.l1_cntrl0.cacheMemory.demand_accesses       176076                      
system.ruby.l1_cntrl0.forwardToCache.avg_buf_msgs     0.015598                      
system.ruby.l1_cntrl0.forwardToCache.avg_stall_time     6.998949                      
system.ruby.l1_cntrl0.mandatoryQueue.avg_buf_msgs     0.093758                      
system.ruby.l1_cntrl0.mandatoryQueue.avg_stall_time     0.999999                      
system.ruby.l1_cntrl0.requestFromCache.avg_buf_msgs     0.062396                      
system.ruby.l1_cntrl0.requestFromCache.avg_stall_time     1.999997                      
system.ruby.l1_cntrl0.responseToCache.avg_buf_msgs     0.015600                      
system.ruby.l1_cntrl0.responseToCache.avg_stall_time     6.999720                      
system.ruby.l1_cntrl0.sequencer.pwrStateResidencyTicks::UNDEFINED      1877994                      
system.ruby.l1_cntrl0.pwrStateResidencyTicks::UNDEFINED      1877994                      
system.ruby.memctrl_clk_domain.clock                3                      
system.ruby.network.routers0.port_buffers03.avg_buf_msgs     0.015598                      
system.ruby.network.routers0.port_buffers03.avg_stall_time     5.999102                      
system.ruby.network.routers0.port_buffers04.avg_buf_msgs     0.015600                      
system.ruby.network.routers0.port_buffers04.avg_stall_time     5.999764                      
system.ruby.network.routers0.port_buffers07.avg_buf_msgs     0.093590                      
system.ruby.network.routers0.port_buffers07.avg_stall_time     6.749701                      
system.ruby.network.routers0.pwrStateResidencyTicks::UNDEFINED      1877994                      
system.ruby.network.routers0.percent_links_utilized     7.799546                      
system.ruby.network.routers0.msg_count.Control::2        29297                      
system.ruby.network.routers0.msg_count.Data::2        29293                      
system.ruby.network.routers0.msg_count.Response_Data::4        29297                      
system.ruby.network.routers0.msg_count.Writeback_Control::3        29293                      
system.ruby.network.routers0.msg_bytes.Control::2       234376                      
system.ruby.network.routers0.msg_bytes.Data::2      2109096                      
system.ruby.network.routers0.msg_bytes.Response_Data::4      2109384                      
system.ruby.network.routers0.msg_bytes.Writeback_Control::3       234344                      
system.ruby.network.routers1.port_buffers02.avg_buf_msgs     0.031198                      
system.ruby.network.routers1.port_buffers02.avg_stall_time    10.749669                      
system.ruby.network.routers1.port_buffers06.avg_buf_msgs     0.015598                      
system.ruby.network.routers1.port_buffers06.avg_stall_time     1.999705                      
system.ruby.network.routers1.port_buffers07.avg_buf_msgs     0.015600                      
system.ruby.network.routers1.port_buffers07.avg_stall_time     1.999925                      
system.ruby.network.routers1.pwrStateResidencyTicks::UNDEFINED      1877994                      
system.ruby.network.routers1.percent_links_utilized     7.799546                      
system.ruby.network.routers1.msg_count.Control::2        29297                      
system.ruby.network.routers1.msg_count.Data::2        29293                      
system.ruby.network.routers1.msg_count.Response_Data::4        29297                      
system.ruby.network.routers1.msg_count.Writeback_Control::3        29293                      
system.ruby.network.routers1.msg_bytes.Control::2       234376                      
system.ruby.network.routers1.msg_bytes.Data::2      2109096                      
system.ruby.network.routers1.msg_bytes.Response_Data::4      2109384                      
system.ruby.network.routers1.msg_bytes.Writeback_Control::3       234344                      
system.ruby.network.int_link_buffers02.avg_buf_msgs     0.031198                      
system.ruby.network.int_link_buffers02.avg_stall_time     7.749695                      
system.ruby.network.int_link_buffers08.avg_buf_msgs     0.015598                      
system.ruby.network.int_link_buffers08.avg_stall_time     2.999556                      
system.ruby.network.int_link_buffers09.avg_buf_msgs     0.015600                      
system.ruby.network.int_link_buffers09.avg_stall_time     2.999887                      
system.ruby.network.int_link_buffers13.avg_buf_msgs     0.015598                      
system.ruby.network.int_link_buffers13.avg_stall_time     4.999255                      
system.ruby.network.int_link_buffers14.avg_buf_msgs     0.015600                      
system.ruby.network.int_link_buffers14.avg_stall_time     4.999806                      
system.ruby.network.int_link_buffers17.avg_buf_msgs     0.031198                      
system.ruby.network.int_link_buffers17.avg_stall_time     9.749679                      
system.ruby.network.routers2.port_buffers03.avg_buf_msgs     0.015598                      
system.ruby.network.routers2.port_buffers03.avg_stall_time     3.999406                      
system.ruby.network.routers2.port_buffers04.avg_buf_msgs     0.015600                      
system.ruby.network.routers2.port_buffers04.avg_stall_time     3.999847                      
system.ruby.network.routers2.port_buffers07.avg_buf_msgs     0.031198                      
system.ruby.network.routers2.port_buffers07.avg_stall_time     8.749687                      
system.ruby.network.routers2.pwrStateResidencyTicks::UNDEFINED      1877994                      
system.ruby.network.routers2.percent_links_utilized     7.799546                      
system.ruby.network.routers2.msg_count.Control::2        29297                      
system.ruby.network.routers2.msg_count.Data::2        29293                      
system.ruby.network.routers2.msg_count.Response_Data::4        29297                      
system.ruby.network.routers2.msg_count.Writeback_Control::3        29293                      
system.ruby.network.routers2.msg_bytes.Control::2       234376                      
system.ruby.network.routers2.msg_bytes.Data::2      2109096                      
system.ruby.network.routers2.msg_bytes.Response_Data::4      2109384                      
system.ruby.network.routers2.msg_bytes.Writeback_Control::3       234344                      
system.ruby.network.pwrStateResidencyTicks::UNDEFINED      1877994                      
system.ruby.network.msg_count.Control           87891                      
system.ruby.network.msg_count.Data              87879                      
system.ruby.network.msg_count.Response_Data        87891                      
system.ruby.network.msg_count.Writeback_Control        87879                      
system.ruby.network.msg_byte.Control           703128                      
system.ruby.network.msg_byte.Data             6327288                      
system.ruby.network.msg_byte.Response_Data      6328152                      
system.ruby.network.msg_byte.Writeback_Control       703032                      
system.sys_port_proxy.pwrStateResidencyTicks::UNDEFINED      1877994                      
system.ruby.network.routers0.throttle0.link_utilization     7.799972                      
system.ruby.network.routers0.throttle0.msg_count.Response_Data::4        29297                      
system.ruby.network.routers0.throttle0.msg_count.Writeback_Control::3        29293                      
system.ruby.network.routers0.throttle0.msg_bytes.Response_Data::4      2109384                      
system.ruby.network.routers0.throttle0.msg_bytes.Writeback_Control::3       234344                      
system.ruby.network.routers0.throttle1.link_utilization     7.799120                      
system.ruby.network.routers0.throttle1.msg_count.Control::2        29297                      
system.ruby.network.routers0.throttle1.msg_count.Data::2        29293                      
system.ruby.network.routers0.throttle1.msg_bytes.Control::2       234376                      
system.ruby.network.routers0.throttle1.msg_bytes.Data::2      2109096                      
system.ruby.network.routers1.throttle0.link_utilization     7.799120                      
system.ruby.network.routers1.throttle0.msg_count.Control::2        29297                      
system.ruby.network.routers1.throttle0.msg_count.Data::2        29293                      
system.ruby.network.routers1.throttle0.msg_bytes.Control::2       234376                      
system.ruby.network.routers1.throttle0.msg_bytes.Data::2      2109096                      
system.ruby.network.routers1.throttle1.link_utilization     7.799972                      
system.ruby.network.routers1.throttle1.msg_count.Response_Data::4        29297                      
system.ruby.network.routers1.throttle1.msg_count.Writeback_Control::3        29293                      
system.ruby.network.routers1.throttle1.msg_bytes.Response_Data::4      2109384                      
system.ruby.network.routers1.throttle1.msg_bytes.Writeback_Control::3       234344                      
system.ruby.network.routers2.throttle0.link_utilization     7.799972                      
system.ruby.network.routers2.throttle0.msg_count.Response_Data::4        29297                      
system.ruby.network.routers2.throttle0.msg_count.Writeback_Control::3        29293                      
system.ruby.network.routers2.throttle0.msg_bytes.Response_Data::4      2109384                      
system.ruby.network.routers2.throttle0.msg_bytes.Writeback_Control::3       234344                      
system.ruby.network.routers2.throttle1.link_utilization     7.799120                      
system.ruby.network.routers2.throttle1.msg_count.Control::2        29297                      
system.ruby.network.routers2.throttle1.msg_count.Data::2        29293                      
system.ruby.network.routers2.throttle1.msg_bytes.Control::2       234376                      
system.ruby.network.routers2.throttle1.msg_bytes.Data::2      2109096                      
system.ruby.delayVCHist.vnet_1::bucket_size            1                      
system.ruby.delayVCHist.vnet_1::max_bucket            9                      
system.ruby.delayVCHist.vnet_1::samples         29297                      
system.ruby.delayVCHist.vnet_1           |       29297    100.00%    100.00% |           0      0.00%    100.00% |           0      0.00%    100.00% |           0      0.00%    100.00% |           0      0.00%    100.00% |           0      0.00%    100.00% |           0      0.00%    100.00% |           0      0.00%    100.00% |           0      0.00%    100.00% |           0      0.00%    100.00%
system.ruby.delayVCHist.vnet_1::total           29297                      
system.ruby.delayVCHist.vnet_2::bucket_size            1                      
system.ruby.delayVCHist.vnet_2::max_bucket            9                      
system.ruby.delayVCHist.vnet_2::samples         29293                      
system.ruby.delayVCHist.vnet_2           |       29293    100.00%    100.00% |           0      0.00%    100.00% |           0      0.00%    100.00% |           0      0.00%    100.00% |           0      0.00%    100.00% |           0      0.00%    100.00% |           0      0.00%    100.00% |           0      0.00%    100.00% |           0      0.00%    100.00% |           0      0.00%    100.00%
system.ruby.delayVCHist.vnet_2::total           29293                      
system.ruby.LD.latency_hist_seqr::bucket_size           64                      
system.ruby.LD.latency_hist_seqr::max_bucket          639                      
system.ruby.LD.latency_hist_seqr::samples        25031                      
system.ruby.LD.latency_hist_seqr::mean      26.866126                      
system.ruby.LD.latency_hist_seqr::gmean      6.929715                      
system.ruby.LD.latency_hist_seqr::stdev     34.828963                      
system.ruby.LD.latency_hist_seqr         |       19947     79.69%     79.69% |        4768     19.05%     98.74% |         221      0.88%     99.62% |          30      0.12%     99.74% |          35      0.14%     99.88% |          28      0.11%     99.99% |           1      0.00%    100.00% |           0      0.00%    100.00% |           0      0.00%    100.00% |           1      0.00%    100.00%
system.ruby.LD.latency_hist_seqr::total         25031                      
system.ruby.LD.hit_latency_hist_seqr::bucket_size            1                      
system.ruby.LD.hit_latency_hist_seqr::max_bucket            9                      
system.ruby.LD.hit_latency_hist_seqr::samples        12371                      
system.ruby.LD.hit_latency_hist_seqr::mean            1                      
system.ruby.LD.hit_latency_hist_seqr::gmean            1                      
system.ruby.LD.hit_latency_hist_seqr     |           0      0.00%      0.00% |       12371    100.00%    100.00% |           0      0.00%    100.00% |           0      0.00%    100.00% |           0      0.00%    100.00% |           0      0.00%    100.00% |           0      0.00%    100.00% |           0      0.00%    100.00% |           0      0.00%    100.00% |           0      0.00%    100.00%
system.ruby.LD.hit_latency_hist_seqr::total        12371                      
system.ruby.LD.miss_latency_hist_seqr::bucket_size           64                      
system.ruby.LD.miss_latency_hist_seqr::max_bucket          639                      
system.ruby.LD.miss_latency_hist_seqr::samples        12660                      
system.ruby.LD.miss_latency_hist_seqr::mean    52.141785                      
system.ruby.LD.miss_latency_hist_seqr::gmean    45.945090                      
system.ruby.LD.miss_latency_hist_seqr::stdev    33.253137                      
system.ruby.LD.miss_latency_hist_seqr    |        7576     59.84%     59.84% |        4768     37.66%     97.50% |         221      1.75%     99.25% |          30      0.24%     99.49% |          35      0.28%     99.76% |          28      0.22%     99.98% |           1      0.01%     99.99% |           0      0.00%     99.99% |           0      0.00%     99.99% |           1      0.01%    100.00%
system.ruby.LD.miss_latency_hist_seqr::total        12660                      
system.ruby.ST.latency_hist_seqr::bucket_size           64                      
system.ruby.ST.latency_hist_seqr::max_bucket          639                      
system.ruby.ST.latency_hist_seqr::samples        16104                      
system.ruby.ST.latency_hist_seqr::mean      16.490313                      
system.ruby.ST.latency_hist_seqr::gmean      3.698537                      
system.ruby.ST.latency_hist_seqr::stdev     28.383159                      
system.ruby.ST.latency_hist_seqr         |       14781     91.78%     91.78% |        1206      7.49%     99.27% |          85      0.53%     99.80% |           7      0.04%     99.84% |          12      0.07%     99.92% |           9      0.06%     99.98% |           0      0.00%     99.98% |           0      0.00%     99.98% |           0      0.00%     99.98% |           4      0.02%    100.00%
system.ruby.ST.latency_hist_seqr::total         16104                      
system.ruby.ST.hit_latency_hist_seqr::bucket_size            1                      
system.ruby.ST.hit_latency_hist_seqr::max_bucket            9                      
system.ruby.ST.hit_latency_hist_seqr::samples        10385                      
system.ruby.ST.hit_latency_hist_seqr::mean            1                      
system.ruby.ST.hit_latency_hist_seqr::gmean            1                      
system.ruby.ST.hit_latency_hist_seqr     |           0      0.00%      0.00% |       10385    100.00%    100.00% |           0      0.00%    100.00% |           0      0.00%    100.00% |           0      0.00%    100.00% |           0      0.00%    100.00% |           0      0.00%    100.00% |           0      0.00%    100.00% |           0      0.00%    100.00% |           0      0.00%    100.00%
system.ruby.ST.hit_latency_hist_seqr::total        10385                      
system.ruby.ST.miss_latency_hist_seqr::bucket_size           64                      
system.ruby.ST.miss_latency_hist_seqr::max_bucket          639                      
system.ruby.ST.miss_latency_hist_seqr::samples         5719                      
system.ruby.ST.miss_latency_hist_seqr::mean    44.618814                      
system.ruby.ST.miss_latency_hist_seqr::gmean    39.765131                      
system.ruby.ST.miss_latency_hist_seqr::stdev    32.273677                      
system.ruby.ST.miss_latency_hist_seqr    |        4396     76.87%     76.87% |        1206     21.09%     97.95% |          85      1.49%     99.44% |           7      0.12%     99.56% |          12      0.21%     99.77% |           9      0.16%     99.93% |           0      0.00%     99.93% |           0      0.00%     99.93% |           0      0.00%     99.93% |           4      0.07%    100.00%
system.ruby.ST.miss_latency_hist_seqr::total         5719                      
system.ruby.IFETCH.latency_hist_seqr::bucket_size           64                      
system.ruby.IFETCH.latency_hist_seqr::max_bucket          639                      
system.ruby.IFETCH.latency_hist_seqr::samples       134467                      
system.ruby.IFETCH.latency_hist_seqr::mean     5.607026                      
system.ruby.IFETCH.latency_hist_seqr::gmean     1.370232                      
system.ruby.IFETCH.latency_hist_seqr::stdev    18.755481                      
system.ruby.IFETCH.latency_hist_seqr     |      128675     95.69%     95.69% |        5409      4.02%     99.72% |         257      0.19%     99.91% |          47      0.03%     99.94% |          43      0.03%     99.97% |          30      0.02%    100.00% |           3      0.00%    100.00% |           0      0.00%    100.00% |           0      0.00%    100.00% |           3      0.00%    100.00%
system.ruby.IFETCH.latency_hist_seqr::total       134467                      
system.ruby.IFETCH.hit_latency_hist_seqr::bucket_size            1                      
system.ruby.IFETCH.hit_latency_hist_seqr::max_bucket            9                      
system.ruby.IFETCH.hit_latency_hist_seqr::samples       123741                      
system.ruby.IFETCH.hit_latency_hist_seqr::mean            1                      
system.ruby.IFETCH.hit_latency_hist_seqr::gmean            1                      
system.ruby.IFETCH.hit_latency_hist_seqr |           0      0.00%      0.00% |      123741    100.00%    100.00% |           0      0.00%    100.00% |           0      0.00%    100.00% |           0      0.00%    100.00% |           0      0.00%    100.00% |           0      0.00%    100.00% |           0      0.00%    100.00% |           0      0.00%    100.00% |           0      0.00%    100.00%
system.ruby.IFETCH.hit_latency_hist_seqr::total       123741                      
system.ruby.IFETCH.miss_latency_hist_seqr::bucket_size           64                      
system.ruby.IFETCH.miss_latency_hist_seqr::max_bucket          639                      
system.ruby.IFETCH.miss_latency_hist_seqr::samples        10726                      
system.ruby.IFETCH.miss_latency_hist_seqr::mean    58.756200                      
system.ruby.IFETCH.miss_latency_hist_seqr::gmean    51.871166                      
system.ruby.IFETCH.miss_latency_hist_seqr::stdev    36.610852                      
system.ruby.IFETCH.miss_latency_hist_seqr |        4934     46.00%     46.00% |        5409     50.43%     96.43% |         257      2.40%     98.83% |          47      0.44%     99.26% |          43      0.40%     99.66% |          30      0.28%     99.94% |           3      0.03%     99.97% |           0      0.00%     99.97% |           0      0.00%     99.97% |           3      0.03%    100.00%
system.ruby.IFETCH.miss_latency_hist_seqr::total        10726                      
system.ruby.Load_Linked.latency_hist_seqr::bucket_size           32                      
system.ruby.Load_Linked.latency_hist_seqr::max_bucket          319                      
system.ruby.Load_Linked.latency_hist_seqr::samples          237                      
system.ruby.Load_Linked.latency_hist_seqr::mean    40.822785                      
system.ruby.Load_Linked.latency_hist_seqr::gmean    22.104464                      
system.ruby.Load_Linked.latency_hist_seqr::stdev    29.214618                      
system.ruby.Load_Linked.latency_hist_seqr |          45     18.99%     18.99% |         107     45.15%     64.14% |          80     33.76%     97.89% |           0      0.00%     97.89% |           4      1.69%     99.58% |           1      0.42%    100.00% |           0      0.00%    100.00% |           0      0.00%    100.00% |           0      0.00%    100.00% |           0      0.00%    100.00%
system.ruby.Load_Linked.latency_hist_seqr::total          237                      
system.ruby.Load_Linked.hit_latency_hist_seqr::bucket_size            1                      
system.ruby.Load_Linked.hit_latency_hist_seqr::max_bucket            9                      
system.ruby.Load_Linked.hit_latency_hist_seqr::samples           45                      
system.ruby.Load_Linked.hit_latency_hist_seqr::mean            1                      
system.ruby.Load_Linked.hit_latency_hist_seqr::gmean            1                      
system.ruby.Load_Linked.hit_latency_hist_seqr |           0      0.00%      0.00% |          45    100.00%    100.00% |           0      0.00%    100.00% |           0      0.00%    100.00% |           0      0.00%    100.00% |           0      0.00%    100.00% |           0      0.00%    100.00% |           0      0.00%    100.00% |           0      0.00%    100.00% |           0      0.00%    100.00%
system.ruby.Load_Linked.hit_latency_hist_seqr::total           45                      
system.ruby.Load_Linked.miss_latency_hist_seqr::bucket_size           32                      
system.ruby.Load_Linked.miss_latency_hist_seqr::max_bucket          319                      
system.ruby.Load_Linked.miss_latency_hist_seqr::samples          192                      
system.ruby.Load_Linked.miss_latency_hist_seqr::mean    50.156250                      
system.ruby.Load_Linked.miss_latency_hist_seqr::gmean    45.665948                      
system.ruby.Load_Linked.miss_latency_hist_seqr::stdev    24.359364                      
system.ruby.Load_Linked.miss_latency_hist_seqr |           0      0.00%      0.00% |         107     55.73%     55.73% |          80     41.67%     97.40% |           0      0.00%     97.40% |           4      2.08%     99.48% |           1      0.52%    100.00% |           0      0.00%    100.00% |           0      0.00%    100.00% |           0      0.00%    100.00% |           0      0.00%    100.00%
system.ruby.Load_Linked.miss_latency_hist_seqr::total          192                      
system.ruby.Store_Conditional.latency_hist_seqr::bucket_size            1                      
system.ruby.Store_Conditional.latency_hist_seqr::max_bucket            9                      
system.ruby.Store_Conditional.latency_hist_seqr::samples          237                      
system.ruby.Store_Conditional.latency_hist_seqr::mean            1                      
system.ruby.Store_Conditional.latency_hist_seqr::gmean            1                      
system.ruby.Store_Conditional.latency_hist_seqr |           0      0.00%      0.00% |         237    100.00%    100.00% |           0      0.00%    100.00% |           0      0.00%    100.00% |           0      0.00%    100.00% |           0      0.00%    100.00% |           0      0.00%    100.00% |           0      0.00%    100.00% |           0      0.00%    100.00% |           0      0.00%    100.00%
system.ruby.Store_Conditional.latency_hist_seqr::total          237                      
system.ruby.Store_Conditional.hit_latency_hist_seqr::bucket_size            1                      
system.ruby.Store_Conditional.hit_latency_hist_seqr::max_bucket            9                      
system.ruby.Store_Conditional.hit_latency_hist_seqr::samples          237                      
system.ruby.Store_Conditional.hit_latency_hist_seqr::mean            1                      
system.ruby.Store_Conditional.hit_latency_hist_seqr::gmean            1                      
system.ruby.Store_Conditional.hit_latency_hist_seqr |           0      0.00%      0.00% |         237    100.00%    100.00% |           0      0.00%    100.00% |           0      0.00%    100.00% |           0      0.00%    100.00% |           0      0.00%    100.00% |           0      0.00%    100.00% |           0      0.00%    100.00% |           0      0.00%    100.00% |           0      0.00%    100.00%
system.ruby.Store_Conditional.hit_latency_hist_seqr::total          237                      
system.ruby.Directory.miss_mach_latency_hist_seqr::bucket_size           64                      
system.ruby.Directory.miss_mach_latency_hist_seqr::max_bucket          639                      
system.ruby.Directory.miss_mach_latency_hist_seqr::samples        29297                      
system.ruby.Directory.miss_mach_latency_hist_seqr::mean    53.081851                      
system.ruby.Directory.miss_mach_latency_hist_seqr::gmean    46.694358                      
system.ruby.Directory.miss_mach_latency_hist_seqr::stdev    34.668107                      
system.ruby.Directory.miss_mach_latency_hist_seqr |       17013     58.07%     58.07% |       11463     39.13%     97.20% |         568      1.94%     99.14% |          84      0.29%     99.42% |          90      0.31%     99.73% |          67      0.23%     99.96% |           4      0.01%     99.97% |           0      0.00%     99.97% |           0      0.00%     99.97% |           8      0.03%    100.00%
system.ruby.Directory.miss_mach_latency_hist_seqr::total        29297                      
system.ruby.Directory.miss_latency_hist_seqr.issue_to_initial_request::bucket_size            1                      
system.ruby.Directory.miss_latency_hist_seqr.issue_to_initial_request::max_bucket            9                      
system.ruby.Directory.miss_latency_hist_seqr.issue_to_initial_request::samples            1                      
system.ruby.Directory.miss_latency_hist_seqr.issue_to_initial_request::stdev          nan                      
system.ruby.Directory.miss_latency_hist_seqr.issue_to_initial_request |           1    100.00%    100.00% |           0      0.00%    100.00% |           0      0.00%    100.00% |           0      0.00%    100.00% |           0      0.00%    100.00% |           0      0.00%    100.00% |           0      0.00%    100.00% |           0      0.00%    100.00% |           0      0.00%    100.00% |           0      0.00%    100.00%
system.ruby.Directory.miss_latency_hist_seqr.issue_to_initial_request::total            1                      
system.ruby.Directory.miss_latency_hist_seqr.initial_to_forward::bucket_size            1                      
system.ruby.Directory.miss_latency_hist_seqr.initial_to_forward::max_bucket            9                      
system.ruby.Directory.miss_latency_hist_seqr.initial_to_forward::samples            1                      
system.ruby.Directory.miss_latency_hist_seqr.initial_to_forward::stdev          nan                      
system.ruby.Directory.miss_latency_hist_seqr.initial_to_forward |           1    100.00%    100.00% |           0      0.00%    100.00% |           0      0.00%    100.00% |           0      0.00%    100.00% |           0      0.00%    100.00% |           0      0.00%    100.00% |           0      0.00%    100.00% |           0      0.00%    100.00% |           0      0.00%    100.00% |           0      0.00%    100.00%
system.ruby.Directory.miss_latency_hist_seqr.initial_to_forward::total            1                      
system.ruby.Directory.miss_latency_hist_seqr.forward_to_first_response::bucket_size            1                      
system.ruby.Directory.miss_latency_hist_seqr.forward_to_first_response::max_bucket            9                      
system.ruby.Directory.miss_latency_hist_seqr.forward_to_first_response::samples            1                      
system.ruby.Directory.miss_latency_hist_seqr.forward_to_first_response::stdev          nan                      
system.ruby.Directory.miss_latency_hist_seqr.forward_to_first_response |           1    100.00%    100.00% |           0      0.00%    100.00% |           0      0.00%    100.00% |           0      0.00%    100.00% |           0      0.00%    100.00% |           0      0.00%    100.00% |           0      0.00%    100.00% |           0      0.00%    100.00% |           0      0.00%    100.00% |           0      0.00%    100.00%
system.ruby.Directory.miss_latency_hist_seqr.forward_to_first_response::total            1                      
system.ruby.Directory.miss_latency_hist_seqr.first_response_to_completion::bucket_size            8                      
system.ruby.Directory.miss_latency_hist_seqr.first_response_to_completion::max_bucket           79                      
system.ruby.Directory.miss_latency_hist_seqr.first_response_to_completion::samples            1                      
system.ruby.Directory.miss_latency_hist_seqr.first_response_to_completion::mean           75                      
system.ruby.Directory.miss_latency_hist_seqr.first_response_to_completion::gmean    75.000000                      
system.ruby.Directory.miss_latency_hist_seqr.first_response_to_completion::stdev          nan                      
system.ruby.Directory.miss_latency_hist_seqr.first_response_to_completion |           0      0.00%      0.00% |           0      0.00%      0.00% |           0      0.00%      0.00% |           0      0.00%      0.00% |           0      0.00%      0.00% |           0      0.00%      0.00% |           0      0.00%      0.00% |           0      0.00%      0.00% |           0      0.00%      0.00% |           1    100.00%    100.00%
system.ruby.Directory.miss_latency_hist_seqr.first_response_to_completion::total            1                      
system.ruby.LD.Directory.miss_type_mach_latency_hist_seqr::bucket_size           64                      
system.ruby.LD.Directory.miss_type_mach_latency_hist_seqr::max_bucket          639                      
system.ruby.LD.Directory.miss_type_mach_latency_hist_seqr::samples        12660                      
system.ruby.LD.Directory.miss_type_mach_latency_hist_seqr::mean    52.141785                      
system.ruby.LD.Directory.miss_type_mach_latency_hist_seqr::gmean    45.945090                      
system.ruby.LD.Directory.miss_type_mach_latency_hist_seqr::stdev    33.253137                      
system.ruby.LD.Directory.miss_type_mach_latency_hist_seqr |        7576     59.84%     59.84% |        4768     37.66%     97.50% |         221      1.75%     99.25% |          30      0.24%     99.49% |          35      0.28%     99.76% |          28      0.22%     99.98% |           1      0.01%     99.99% |           0      0.00%     99.99% |           0      0.00%     99.99% |           1      0.01%    100.00%
system.ruby.LD.Directory.miss_type_mach_latency_hist_seqr::total        12660                      
system.ruby.ST.Directory.miss_type_mach_latency_hist_seqr::bucket_size           64                      
system.ruby.ST.Directory.miss_type_mach_latency_hist_seqr::max_bucket          639                      
system.ruby.ST.Directory.miss_type_mach_latency_hist_seqr::samples         5719                      
system.ruby.ST.Directory.miss_type_mach_latency_hist_seqr::mean    44.618814                      
system.ruby.ST.Directory.miss_type_mach_latency_hist_seqr::gmean    39.765131                      
system.ruby.ST.Directory.miss_type_mach_latency_hist_seqr::stdev    32.273677                      
system.ruby.ST.Directory.miss_type_mach_latency_hist_seqr |        4396     76.87%     76.87% |        1206     21.09%     97.95% |          85      1.49%     99.44% |           7      0.12%     99.56% |          12      0.21%     99.77% |           9      0.16%     99.93% |           0      0.00%     99.93% |           0      0.00%     99.93% |           0      0.00%     99.93% |           4      0.07%    100.00%
system.ruby.ST.Directory.miss_type_mach_latency_hist_seqr::total         5719                      
system.ruby.IFETCH.Directory.miss_type_mach_latency_hist_seqr::bucket_size           64                      
system.ruby.IFETCH.Directory.miss_type_mach_latency_hist_seqr::max_bucket          639                      
system.ruby.IFETCH.Directory.miss_type_mach_latency_hist_seqr::samples        10726                      
system.ruby.IFETCH.Directory.miss_type_mach_latency_hist_seqr::mean    58.756200                      
system.ruby.IFETCH.Directory.miss_type_mach_latency_hist_seqr::gmean    51.871166                      
system.ruby.IFETCH.Directory.miss_type_mach_latency_hist_seqr::stdev    36.610852                      
system.ruby.IFETCH.Directory.miss_type_mach_latency_hist_seqr |        4934     46.00%     46.00% |        5409     50.43%     96.43% |         257      2.40%     98.83% |          47      0.44%     99.26% |          43      0.40%     99.66% |          30      0.28%     99.94% |           3      0.03%     99.97% |           0      0.00%     99.97% |           0      0.00%     99.97% |           3      0.03%    100.00%
system.ruby.IFETCH.Directory.miss_type_mach_latency_hist_seqr::total        10726                      
system.ruby.Load_Linked.Directory.miss_type_mach_latency_hist_seqr::bucket_size           32                      
system.ruby.Load_Linked.Directory.miss_type_mach_latency_hist_seqr::max_bucket          319                      
system.ruby.Load_Linked.Directory.miss_type_mach_latency_hist_seqr::samples          192                      
system.ruby.Load_Linked.Directory.miss_type_mach_latency_hist_seqr::mean    50.156250                      
system.ruby.Load_Linked.Directory.miss_type_mach_latency_hist_seqr::gmean    45.665948                      
system.ruby.Load_Linked.Directory.miss_type_mach_latency_hist_seqr::stdev    24.359364                      
system.ruby.Load_Linked.Directory.miss_type_mach_latency_hist_seqr |           0      0.00%      0.00% |         107     55.73%     55.73% |          80     41.67%     97.40% |           0      0.00%     97.40% |           4      2.08%     99.48% |           1      0.52%    100.00% |           0      0.00%    100.00% |           0      0.00%    100.00% |           0      0.00%    100.00% |           0      0.00%    100.00%
system.ruby.Load_Linked.Directory.miss_type_mach_latency_hist_seqr::total          192                      
system.ruby.Directory_Controller.GETX           29297      0.00%      0.00%
system.ruby.Directory_Controller.PUTX           29293      0.00%      0.00%
system.ruby.Directory_Controller.Memory_Data        29297      0.00%      0.00%
system.ruby.Directory_Controller.Memory_Ack        29293      0.00%      0.00%
system.ruby.Directory_Controller.I.GETX         29297      0.00%      0.00%
system.ruby.Directory_Controller.M.PUTX         29293      0.00%      0.00%
system.ruby.Directory_Controller.IM.Memory_Data        29297      0.00%      0.00%
system.ruby.Directory_Controller.MI.Memory_Ack        29293      0.00%      0.00%
system.ruby.L1Cache_Controller.Load             25031      0.00%      0.00%
system.ruby.L1Cache_Controller.Ifetch          134467      0.00%      0.00%
system.ruby.L1Cache_Controller.Store            16578      0.00%      0.00%
system.ruby.L1Cache_Controller.Data             29297      0.00%      0.00%
system.ruby.L1Cache_Controller.Replacement        29293      0.00%      0.00%
system.ruby.L1Cache_Controller.Writeback_Ack        29293      0.00%      0.00%
system.ruby.L1Cache_Controller.I.Load           12660      0.00%      0.00%
system.ruby.L1Cache_Controller.I.Ifetch         10726      0.00%      0.00%
system.ruby.L1Cache_Controller.I.Store           5911      0.00%      0.00%
system.ruby.L1Cache_Controller.M.Load           12371      0.00%      0.00%
system.ruby.L1Cache_Controller.M.Ifetch        123741      0.00%      0.00%
system.ruby.L1Cache_Controller.M.Store          10667      0.00%      0.00%
system.ruby.L1Cache_Controller.M.Replacement        29293      0.00%      0.00%
system.ruby.L1Cache_Controller.MI.Writeback_Ack        29293      0.00%      0.00%
system.ruby.L1Cache_Controller.IS.Data          23386      0.00%      0.00%
system.ruby.L1Cache_Controller.IM.Data           5911      0.00%      0.00%

---------- End Simulation Statistics   ----------
