
---------- Begin Simulation Statistics ----------
sim_seconds                                  0.000234                      
sim_ticks                                   234482500                      
final_tick                                  234482500                      
sim_freq                                 1000000000000                      
host_inst_rate                                 280096                      
host_op_rate                                   280951                      
host_tick_rate                              164009867                      
host_mem_usage                                 390828                      
host_seconds                                     1.42                      
sim_insts                                      400425                      
sim_ops                                        401656                      
system.voltage_domain.voltage                       1                      
system.clk_domain.clock                          1000                      
system.physmem.pwrStateResidencyTicks::UNDEFINED    234482500                      
system.physmem.bytes_read::cpu.inst           1870940                      
system.physmem.bytes_read::cpu.data            680436                      
system.physmem.bytes_read::total              2551376                      
system.physmem.bytes_inst_read::cpu.inst      1870940                      
system.physmem.bytes_inst_read::total         1870940                      
system.physmem.bytes_written::cpu.data         429191                      
system.physmem.bytes_written::total            429191                      
system.physmem.num_reads::cpu.inst             467735                      
system.physmem.num_reads::cpu.data             101680                      
system.physmem.num_reads::total                569415                      
system.physmem.num_writes::cpu.data             61680                      
system.physmem.num_writes::total                61680                      
system.physmem.bw_read::cpu.inst           7979017623                      
system.physmem.bw_read::cpu.data           2901862612                      
system.physmem.bw_read::total             10880880236                      
system.physmem.bw_inst_read::cpu.inst      7979017623                      
system.physmem.bw_inst_read::total         7979017623                      
system.physmem.bw_write::cpu.data          1830375401                      
system.physmem.bw_write::total             1830375401                      
system.physmem.bw_total::cpu.inst          7979017623                      
system.physmem.bw_total::cpu.data          4732238013                      
system.physmem.bw_total::total            12711255637                      
system.pwrStateResidencyTicks::UNDEFINED    234482500                      
system.cpu_clk_domain.clock                       500                      
system.cpu.dtb.read_hits                            0                      
system.cpu.dtb.read_misses                          0                      
system.cpu.dtb.read_accesses                        0                      
system.cpu.dtb.write_hits                           0                      
system.cpu.dtb.write_misses                         0                      
system.cpu.dtb.write_accesses                       0                      
system.cpu.dtb.hits                                 0                      
system.cpu.dtb.misses                               0                      
system.cpu.dtb.accesses                             0                      
system.cpu.itb.read_hits                            0                      
system.cpu.itb.read_misses                          0                      
system.cpu.itb.read_accesses                        0                      
system.cpu.itb.write_hits                           0                      
system.cpu.itb.write_misses                         0                      
system.cpu.itb.write_accesses                       0                      
system.cpu.itb.hits                                 0                      
system.cpu.itb.misses                               0                      
system.cpu.itb.accesses                             0                      
system.cpu.workload.numSyscalls                   220                      
system.cpu.pwrStateResidencyTicks::ON       234482500                      
system.cpu.numCycles                           468966                      
system.cpu.numWorkItemsStarted                      0                      
system.cpu.numWorkItemsCompleted                    0                      
system.cpu.committedInsts                      400425                      
system.cpu.committedOps                        401656                      
system.cpu.num_int_alu_accesses                399608                      
system.cpu.num_fp_alu_accesses                   1229                      
system.cpu.num_vec_alu_accesses                     0                      
system.cpu.num_func_calls                       22534                      
system.cpu.num_conditional_control_insts        65010                      
system.cpu.num_int_insts                       399608                      
system.cpu.num_fp_insts                          1229                      
system.cpu.num_vec_insts                            0                      
system.cpu.num_int_register_reads              504092                      
system.cpu.num_int_register_writes             266150                      
system.cpu.num_fp_register_reads                  988                      
system.cpu.num_fp_register_writes                 800                      
system.cpu.num_vec_register_reads                   0                      
system.cpu.num_vec_register_writes                  0                      
system.cpu.num_mem_refs                        163360                      
system.cpu.num_load_insts                      101680                      
system.cpu.num_store_insts                      61680                      
system.cpu.num_idle_cycles                         -0                      
system.cpu.num_busy_cycles                     468966                      
system.cpu.not_idle_fraction                        1                      
system.cpu.idle_fraction                           -0                      
system.cpu.Branches                             87544                      
system.cpu.op_class::No_OpClass                   224      0.05%      0.05%
system.cpu.op_class::IntAlu                    237173     59.01%     59.07%
system.cpu.op_class::IntMult                      638      0.15%     59.23%
system.cpu.op_class::IntDiv                         4      0.00%     59.23%
system.cpu.op_class::FloatAdd                      11      0.00%     59.23%
system.cpu.op_class::FloatCmp                     170      0.04%     59.27%
system.cpu.op_class::FloatCvt                     128      0.03%     59.30%
system.cpu.op_class::FloatMult                      8      0.00%     59.31%
system.cpu.op_class::FloatMultAcc                  22      0.00%     59.31%
system.cpu.op_class::FloatDiv                      11      0.00%     59.31%
system.cpu.op_class::FloatMisc                    122      0.03%     59.34%
system.cpu.op_class::FloatSqrt                      5      0.00%     59.35%
system.cpu.op_class::SimdAdd                        0      0.00%     59.35%
system.cpu.op_class::SimdAddAcc                     0      0.00%     59.35%
system.cpu.op_class::SimdAlu                        0      0.00%     59.35%
system.cpu.op_class::SimdCmp                        0      0.00%     59.35%
system.cpu.op_class::SimdCvt                        0      0.00%     59.35%
system.cpu.op_class::SimdMisc                       0      0.00%     59.35%
system.cpu.op_class::SimdMult                       0      0.00%     59.35%
system.cpu.op_class::SimdMultAcc                    0      0.00%     59.35%
system.cpu.op_class::SimdShift                      0      0.00%     59.35%
system.cpu.op_class::SimdShiftAcc                   0      0.00%     59.35%
system.cpu.op_class::SimdSqrt                       0      0.00%     59.35%
system.cpu.op_class::SimdFloatAdd                   0      0.00%     59.35%
system.cpu.op_class::SimdFloatAlu                   0      0.00%     59.35%
system.cpu.op_class::SimdFloatCmp                   0      0.00%     59.35%
system.cpu.op_class::SimdFloatCvt                   0      0.00%     59.35%
system.cpu.op_class::SimdFloatDiv                   0      0.00%     59.35%
system.cpu.op_class::SimdFloatMisc                  0      0.00%     59.35%
system.cpu.op_class::SimdFloatMult                  0      0.00%     59.35%
system.cpu.op_class::SimdFloatMultAcc               0      0.00%     59.35%
system.cpu.op_class::SimdFloatSqrt                  0      0.00%     59.35%
system.cpu.op_class::MemRead                   101109     25.15%     84.50%
system.cpu.op_class::MemWrite                   61499     15.30%     99.81%
system.cpu.op_class::FloatMemRead                 571      0.14%     99.95%
system.cpu.op_class::FloatMemWrite                181      0.04%     99.99%
system.cpu.op_class::IprAccess                      0      0.00%     99.99%
system.cpu.op_class::InstPrefetch                   0      0.00%     99.99%
system.cpu.op_class::total                     401876                      
system.membus.snoop_filter.tot_requests             0                      
system.membus.snoop_filter.hit_single_requests            0                      
system.membus.snoop_filter.hit_multi_requests            0                      
system.membus.snoop_filter.tot_snoops               0                      
system.membus.snoop_filter.hit_single_snoops            0                      
system.membus.snoop_filter.hit_multi_snoops            0                      
system.membus.pwrStateResidencyTicks::UNDEFINED    234482500                      
system.membus.trans_dist::ReadReq              567728                      
system.membus.trans_dist::ReadResp             569415                      
system.membus.trans_dist::WriteReq              59993                      
system.membus.trans_dist::WriteResp             59993                      
system.membus.trans_dist::LoadLockedReq          1687                      
system.membus.trans_dist::StoreCondReq           1687                      
system.membus.trans_dist::StoreCondResp          1687                      
system.membus.pkt_count_system.cpu.icache_port::system.physmem.port       935470                      
system.membus.pkt_count_system.cpu.dcache_port::system.physmem.port       326720                      
system.membus.pkt_count::total                1262190                      
system.membus.pkt_size_system.cpu.icache_port::system.physmem.port      1870940                      
system.membus.pkt_size_system.cpu.dcache_port::system.physmem.port      1109627                      
system.membus.pkt_size::total                 2980567                      
system.membus.snoops                                0                      
system.membus.snoopTraffic                          0                      
system.membus.snoop_fanout::samples            631095                      
system.membus.snoop_fanout::mean                    0                      
system.membus.snoop_fanout::stdev                  -0                      
system.membus.snoop_fanout::underflows              0      0.00%      0.00%
system.membus.snoop_fanout::0                  631095    100.00%    100.00%
system.membus.snoop_fanout::1                       0      0.00%    100.00%
system.membus.snoop_fanout::overflows               0      0.00%    100.00%
system.membus.snoop_fanout::min_value               0                      
system.membus.snoop_fanout::max_value               0                      
system.membus.snoop_fanout::total              631095                      

---------- End Simulation Statistics   ----------
