
---------- Begin Simulation Statistics ----------
sim_seconds                                  0.000177                      
sim_ticks                                   176697500                      
final_tick                                  176697500                      
sim_freq                                 1000000000000                      
host_inst_rate                                 132396                      
host_op_rate                                   132648                      
host_tick_rate                              217523053                      
host_mem_usage                                 401872                      
host_seconds                                     0.81                      
sim_insts                                      107537                      
sim_ops                                        107749                      
system.voltage_domain.voltage                       1                      
system.clk_domain.clock                          1000                      
system.physmem.pwrStateResidencyTicks::UNDEFINED    176697500                      
system.physmem.bytes_read::cpu.inst             60480                      
system.physmem.bytes_read::cpu.data             29440                      
system.physmem.bytes_read::total                89920                      
system.physmem.bytes_inst_read::cpu.inst        60480                      
system.physmem.bytes_inst_read::total           60480                      
system.physmem.num_reads::cpu.inst                945                      
system.physmem.num_reads::cpu.data                460                      
system.physmem.num_reads::total                  1405                      
system.physmem.bw_read::cpu.inst            342279885                      
system.physmem.bw_read::cpu.data            166612431                      
system.physmem.bw_read::total               508892316                      
system.physmem.bw_inst_read::cpu.inst       342279885                      
system.physmem.bw_inst_read::total          342279885                      
system.physmem.bw_total::cpu.inst           342279885                      
system.physmem.bw_total::cpu.data           166612431                      
system.physmem.bw_total::total              508892316                      
system.physmem.readReqs                          1405                      
system.physmem.writeReqs                            0                      
system.physmem.readBursts                        1405                      
system.physmem.writeBursts                          0                      
system.physmem.bytesReadDRAM                    89920                      
system.physmem.bytesReadWrQ                         0                      
system.physmem.bytesWritten                         0                      
system.physmem.bytesReadSys                     89920                      
system.physmem.bytesWrittenSys                      0                      
system.physmem.servicedByWrQ                        0                      
system.physmem.mergedWrBursts                       0                      
system.physmem.neitherReadNorWriteReqs              0                      
system.physmem.perBankRdBursts::0                 165                      
system.physmem.perBankRdBursts::1                  82                      
system.physmem.perBankRdBursts::2                 125                      
system.physmem.perBankRdBursts::3                  86                      
system.physmem.perBankRdBursts::4                  28                      
system.physmem.perBankRdBursts::5                  90                      
system.physmem.perBankRdBursts::6                  29                      
system.physmem.perBankRdBursts::7                  35                      
system.physmem.perBankRdBursts::8                  85                      
system.physmem.perBankRdBursts::9                 137                      
system.physmem.perBankRdBursts::10                194                      
system.physmem.perBankRdBursts::11                146                      
system.physmem.perBankRdBursts::12                 52                      
system.physmem.perBankRdBursts::13                 52                      
system.physmem.perBankRdBursts::14                 53                      
system.physmem.perBankRdBursts::15                 46                      
system.physmem.perBankWrBursts::0                   0                      
system.physmem.perBankWrBursts::1                   0                      
system.physmem.perBankWrBursts::2                   0                      
system.physmem.perBankWrBursts::3                   0                      
system.physmem.perBankWrBursts::4                   0                      
system.physmem.perBankWrBursts::5                   0                      
system.physmem.perBankWrBursts::6                   0                      
system.physmem.perBankWrBursts::7                   0                      
system.physmem.perBankWrBursts::8                   0                      
system.physmem.perBankWrBursts::9                   0                      
system.physmem.perBankWrBursts::10                  0                      
system.physmem.perBankWrBursts::11                  0                      
system.physmem.perBankWrBursts::12                  0                      
system.physmem.perBankWrBursts::13                  0                      
system.physmem.perBankWrBursts::14                  0                      
system.physmem.perBankWrBursts::15                  0                      
system.physmem.numRdRetry                           0                      
system.physmem.numWrRetry                           0                      
system.physmem.totGap                       176600500                      
system.physmem.readPktSize::0                       0                      
system.physmem.readPktSize::1                       0                      
system.physmem.readPktSize::2                       0                      
system.physmem.readPktSize::3                       0                      
system.physmem.readPktSize::4                       0                      
system.physmem.readPktSize::5                       0                      
system.physmem.readPktSize::6                    1405                      
system.physmem.writePktSize::0                      0                      
system.physmem.writePktSize::1                      0                      
system.physmem.writePktSize::2                      0                      
system.physmem.writePktSize::3                      0                      
system.physmem.writePktSize::4                      0                      
system.physmem.writePktSize::5                      0                      
system.physmem.writePktSize::6                      0                      
system.physmem.rdQLenPdf::0                      1191                      
system.physmem.rdQLenPdf::1                       200                      
system.physmem.rdQLenPdf::2                        14                      
system.physmem.rdQLenPdf::3                         0                      
system.physmem.rdQLenPdf::4                         0                      
system.physmem.rdQLenPdf::5                         0                      
system.physmem.rdQLenPdf::6                         0                      
system.physmem.rdQLenPdf::7                         0                      
system.physmem.rdQLenPdf::8                         0                      
system.physmem.rdQLenPdf::9                         0                      
system.physmem.rdQLenPdf::10                        0                      
system.physmem.rdQLenPdf::11                        0                      
system.physmem.rdQLenPdf::12                        0                      
system.physmem.rdQLenPdf::13                        0                      
system.physmem.rdQLenPdf::14                        0                      
system.physmem.rdQLenPdf::15                        0                      
system.physmem.rdQLenPdf::16                        0                      
system.physmem.rdQLenPdf::17                        0                      
system.physmem.rdQLenPdf::18                        0                      
system.physmem.rdQLenPdf::19                        0                      
system.physmem.rdQLenPdf::20                        0                      
system.physmem.rdQLenPdf::21                        0                      
system.physmem.rdQLenPdf::22                        0                      
system.physmem.rdQLenPdf::23                        0                      
system.physmem.rdQLenPdf::24                        0                      
system.physmem.rdQLenPdf::25                        0                      
system.physmem.rdQLenPdf::26                        0                      
system.physmem.rdQLenPdf::27                        0                      
system.physmem.rdQLenPdf::28                        0                      
system.physmem.rdQLenPdf::29                        0                      
system.physmem.rdQLenPdf::30                        0                      
system.physmem.rdQLenPdf::31                        0                      
system.physmem.wrQLenPdf::0                         0                      
system.physmem.wrQLenPdf::1                         0                      
system.physmem.wrQLenPdf::2                         0                      
system.physmem.wrQLenPdf::3                         0                      
system.physmem.wrQLenPdf::4                         0                      
system.physmem.wrQLenPdf::5                         0                      
system.physmem.wrQLenPdf::6                         0                      
system.physmem.wrQLenPdf::7                         0                      
system.physmem.wrQLenPdf::8                         0                      
system.physmem.wrQLenPdf::9                         0                      
system.physmem.wrQLenPdf::10                        0                      
system.physmem.wrQLenPdf::11                        0                      
system.physmem.wrQLenPdf::12                        0                      
system.physmem.wrQLenPdf::13                        0                      
system.physmem.wrQLenPdf::14                        0                      
system.physmem.wrQLenPdf::15                        0                      
system.physmem.wrQLenPdf::16                        0                      
system.physmem.wrQLenPdf::17                        0                      
system.physmem.wrQLenPdf::18                        0                      
system.physmem.wrQLenPdf::19                        0                      
system.physmem.wrQLenPdf::20                        0                      
system.physmem.wrQLenPdf::21                        0                      
system.physmem.wrQLenPdf::22                        0                      
system.physmem.wrQLenPdf::23                        0                      
system.physmem.wrQLenPdf::24                        0                      
system.physmem.wrQLenPdf::25                        0                      
system.physmem.wrQLenPdf::26                        0                      
system.physmem.wrQLenPdf::27                        0                      
system.physmem.wrQLenPdf::28                        0                      
system.physmem.wrQLenPdf::29                        0                      
system.physmem.wrQLenPdf::30                        0                      
system.physmem.wrQLenPdf::31                        0                      
system.physmem.wrQLenPdf::32                        0                      
system.physmem.wrQLenPdf::33                        0                      
system.physmem.wrQLenPdf::34                        0                      
system.physmem.wrQLenPdf::35                        0                      
system.physmem.wrQLenPdf::36                        0                      
system.physmem.wrQLenPdf::37                        0                      
system.physmem.wrQLenPdf::38                        0                      
system.physmem.wrQLenPdf::39                        0                      
system.physmem.wrQLenPdf::40                        0                      
system.physmem.wrQLenPdf::41                        0                      
system.physmem.wrQLenPdf::42                        0                      
system.physmem.wrQLenPdf::43                        0                      
system.physmem.wrQLenPdf::44                        0                      
system.physmem.wrQLenPdf::45                        0                      
system.physmem.wrQLenPdf::46                        0                      
system.physmem.wrQLenPdf::47                        0                      
system.physmem.wrQLenPdf::48                        0                      
system.physmem.wrQLenPdf::49                        0                      
system.physmem.wrQLenPdf::50                        0                      
system.physmem.wrQLenPdf::51                        0                      
system.physmem.wrQLenPdf::52                        0                      
system.physmem.wrQLenPdf::53                        0                      
system.physmem.wrQLenPdf::54                        0                      
system.physmem.wrQLenPdf::55                        0                      
system.physmem.wrQLenPdf::56                        0                      
system.physmem.wrQLenPdf::57                        0                      
system.physmem.wrQLenPdf::58                        0                      
system.physmem.wrQLenPdf::59                        0                      
system.physmem.wrQLenPdf::60                        0                      
system.physmem.wrQLenPdf::61                        0                      
system.physmem.wrQLenPdf::62                        0                      
system.physmem.wrQLenPdf::63                        0                      
system.physmem.bytesPerActivate::samples          272                      
system.physmem.bytesPerActivate::mean      323.294118                      
system.physmem.bytesPerActivate::gmean     217.020651                      
system.physmem.bytesPerActivate::stdev     284.715126                      
system.physmem.bytesPerActivate::0-127             71     26.10%     26.10%
system.physmem.bytesPerActivate::128-255           62     22.79%     48.90%
system.physmem.bytesPerActivate::256-383           49     18.01%     66.91%
system.physmem.bytesPerActivate::384-511           27      9.93%     76.84%
system.physmem.bytesPerActivate::512-639           19      6.99%     83.82%
system.physmem.bytesPerActivate::640-767           14      5.15%     88.97%
system.physmem.bytesPerActivate::768-895            7      2.57%     91.54%
system.physmem.bytesPerActivate::896-1023            6      2.21%     93.75%
system.physmem.bytesPerActivate::1024-1151           17      6.25%    100.00%
system.physmem.bytesPerActivate::total            272                      
system.physmem.totQLat                       18165000                      
system.physmem.totMemAccLat                  44508750                      
system.physmem.totBusLat                      7025000                      
system.physmem.avgQLat                       12928.83                      
system.physmem.avgBusLat                      5000.00                      
system.physmem.avgMemAccLat                  31678.83                      
system.physmem.avgRdBW                         508.89                      
system.physmem.avgWrBW                           0.00                      
system.physmem.avgRdBWSys                      508.89                      
system.physmem.avgWrBWSys                        0.00                      
system.physmem.peakBW                        12800.00                      
system.physmem.busUtil                           3.98                      
system.physmem.busUtilRead                       3.98                      
system.physmem.busUtilWrite                      0.00                      
system.physmem.avgRdQLen                         1.13                      
system.physmem.avgWrQLen                         0.00                      
system.physmem.readRowHits                       1121                      
system.physmem.writeRowHits                         0                      
system.physmem.readRowHitRate                   79.79                      
system.physmem.writeRowHitRate                    nan                      
system.physmem.avgGap                       125694.31                      
system.physmem.pageHitRate                      79.79                      
system.physmem_0.actEnergy                     828240                      
system.physmem_0.preEnergy                     417450                      
system.physmem_0.readEnergy                   4569600                      
system.physmem_0.writeEnergy                        0                      
system.physmem_0.refreshEnergy           13522080.000000                      
system.physmem_0.actBackEnergy               11271750                      
system.physmem_0.preBackEnergy                 300000                      
system.physmem_0.actPowerDownEnergy          64032660                      
system.physmem_0.prePowerDownEnergy           4137600                      
system.physmem_0.selfRefreshEnergy                  0                      
system.physmem_0.totalEnergy                 99079380                      
system.physmem_0.averagePower              560.728816                      
system.physmem_0.totalIdleTime              151140000                      
system.physmem_0.memoryStateTime::IDLE         132000                      
system.physmem_0.memoryStateTime::REF         5720000                      
system.physmem_0.memoryStateTime::SREF              0                      
system.physmem_0.memoryStateTime::PRE_PDN     10772250                      
system.physmem_0.memoryStateTime::ACT        19659000                      
system.physmem_0.memoryStateTime::ACT_PDN    140414250                      
system.physmem_1.actEnergy                    1199520                      
system.physmem_1.preEnergy                     614790                      
system.physmem_1.readEnergy                   5462100                      
system.physmem_1.writeEnergy                        0                      
system.physmem_1.refreshEnergy           13522080.000000                      
system.physmem_1.actBackEnergy               12938430                      
system.physmem_1.preBackEnergy                 380640                      
system.physmem_1.actPowerDownEnergy          57880650                      
system.physmem_1.prePowerDownEnergy           7834080                      
system.physmem_1.selfRefreshEnergy                  0                      
system.physmem_1.totalEnergy                 99832290                      
system.physmem_1.averagePower              564.989827                      
system.physmem_1.totalIdleTime              147155500                      
system.physmem_1.memoryStateTime::IDLE         386000                      
system.physmem_1.memoryStateTime::REF         5720000                      
system.physmem_1.memoryStateTime::SREF              0                      
system.physmem_1.memoryStateTime::PRE_PDN     20396500                      
system.physmem_1.memoryStateTime::ACT        23258250                      
system.physmem_1.memoryStateTime::ACT_PDN    126936750                      
system.pwrStateResidencyTicks::UNDEFINED    176697500                      
system.cpu.branchPred.lookups                   32054                      
system.cpu.branchPred.condPredicted             21845                      
system.cpu.branchPred.condIncorrect              2776                      
system.cpu.branchPred.BTBLookups                24489                      
system.cpu.branchPred.BTBHits                   11341                      
system.cpu.branchPred.BTBCorrect                    0                      
system.cpu.branchPred.BTBHitPct             46.310588                      
system.cpu.branchPred.usedRAS                       0                      
system.cpu.branchPred.RASInCorrect                  0                      
system.cpu.branchPred.indirectLookups            6620                      
system.cpu.branchPred.indirectHits               3320                      
system.cpu.branchPred.indirectMisses             3300                      
system.cpu.branchPredindirectMispredicted         1320                      
system.cpu_clk_domain.clock                       500                      
system.cpu.dtb.read_hits                            0                      
system.cpu.dtb.read_misses                          0                      
system.cpu.dtb.read_accesses                        0                      
system.cpu.dtb.write_hits                           0                      
system.cpu.dtb.write_misses                         0                      
system.cpu.dtb.write_accesses                       0                      
system.cpu.dtb.hits                                 0                      
system.cpu.dtb.misses                               0                      
system.cpu.dtb.accesses                             0                      
system.cpu.itb.read_hits                            0                      
system.cpu.itb.read_misses                          0                      
system.cpu.itb.read_accesses                        0                      
system.cpu.itb.write_hits                           0                      
system.cpu.itb.write_misses                         0                      
system.cpu.itb.write_accesses                       0                      
system.cpu.itb.hits                                 0                      
system.cpu.itb.misses                               0                      
system.cpu.itb.accesses                             0                      
system.cpu.workload.numSyscalls                    45                      
system.cpu.pwrStateResidencyTicks::ON       176697500                      
system.cpu.numCycles                           353395                      
system.cpu.numWorkItemsStarted                      0                      
system.cpu.numWorkItemsCompleted                    0                      
system.cpu.committedInsts                      107537                      
system.cpu.committedOps                        107749                      
system.cpu.discardedOps                          7856                      
system.cpu.numFetchSuspends                         0                      
system.cpu.cpi                               3.286264                      
system.cpu.ipc                               0.304297                      
system.cpu.op_class_0::No_OpClass                  49      0.05%      0.05%
system.cpu.op_class_0::IntAlu                   65937     61.19%     61.24%
system.cpu.op_class_0::IntMult                    124      0.12%     61.36%
system.cpu.op_class_0::IntDiv                      30      0.03%     61.38%
system.cpu.op_class_0::FloatAdd                     0      0.00%     61.38%
system.cpu.op_class_0::FloatCmp                     0      0.00%     61.38%
system.cpu.op_class_0::FloatCvt                     0      0.00%     61.38%
system.cpu.op_class_0::FloatMult                    0      0.00%     61.38%
system.cpu.op_class_0::FloatMultAcc                 0      0.00%     61.38%
system.cpu.op_class_0::FloatDiv                     0      0.00%     61.38%
system.cpu.op_class_0::FloatMisc                    0      0.00%     61.38%
system.cpu.op_class_0::FloatSqrt                    0      0.00%     61.38%
system.cpu.op_class_0::SimdAdd                      0      0.00%     61.38%
system.cpu.op_class_0::SimdAddAcc                   0      0.00%     61.38%
system.cpu.op_class_0::SimdAlu                      0      0.00%     61.38%
system.cpu.op_class_0::SimdCmp                      0      0.00%     61.38%
system.cpu.op_class_0::SimdCvt                      0      0.00%     61.38%
system.cpu.op_class_0::SimdMisc                     0      0.00%     61.38%
system.cpu.op_class_0::SimdMult                     0      0.00%     61.38%
system.cpu.op_class_0::SimdMultAcc                  0      0.00%     61.38%
system.cpu.op_class_0::SimdShift                    0      0.00%     61.38%
system.cpu.op_class_0::SimdShiftAcc                 0      0.00%     61.38%
system.cpu.op_class_0::SimdSqrt                     0      0.00%     61.38%
system.cpu.op_class_0::SimdFloatAdd                 0      0.00%     61.38%
system.cpu.op_class_0::SimdFloatAlu                 0      0.00%     61.38%
system.cpu.op_class_0::SimdFloatCmp                 0      0.00%     61.38%
system.cpu.op_class_0::SimdFloatCvt                 0      0.00%     61.38%
system.cpu.op_class_0::SimdFloatDiv                 0      0.00%     61.38%
system.cpu.op_class_0::SimdFloatMisc                0      0.00%     61.38%
system.cpu.op_class_0::SimdFloatMult                0      0.00%     61.38%
system.cpu.op_class_0::SimdFloatMultAcc             0      0.00%     61.38%
system.cpu.op_class_0::SimdFloatSqrt                0      0.00%     61.38%
system.cpu.op_class_0::MemRead                  25268     23.45%     84.83%
system.cpu.op_class_0::MemWrite                 16329     15.15%     99.99%
system.cpu.op_class_0::FloatMemRead                 0      0.00%     99.99%
system.cpu.op_class_0::FloatMemWrite               12      0.01%    100.00%
system.cpu.op_class_0::IprAccess                    0      0.00%    100.00%
system.cpu.op_class_0::InstPrefetch                 0      0.00%    100.00%
system.cpu.op_class_0::total                   107749                      
system.cpu.tickCycles                          166114                      
system.cpu.idleCycles                          187281                      
system.cpu.fetch2.int_instructions              88761                      
system.cpu.fetch2.fp_instructions                   0                      
system.cpu.fetch2.vec_instructions                  0                      
system.cpu.fetch2.load_instructions             32047                      
system.cpu.fetch2.store_instructions            21179                      
system.cpu.dcache.tags.pwrStateResidencyTicks::UNDEFINED    176697500                      
system.cpu.dcache.tags.replacements                 0                      
system.cpu.dcache.tags.tagsinuse           305.878033                      
system.cpu.dcache.tags.total_refs               42089                      
system.cpu.dcache.tags.sampled_refs               461                      
system.cpu.dcache.tags.avg_refs             91.299349                      
system.cpu.dcache.tags.warmup_cycle            339500                      
system.cpu.dcache.tags.occ_blocks::cpu.data   305.878033                      
system.cpu.dcache.tags.occ_percent::cpu.data     0.074677                      
system.cpu.dcache.tags.occ_percent::total     0.074677                      
system.cpu.dcache.tags.occ_task_id_blocks::1024          461                      
system.cpu.dcache.tags.age_task_id_blocks_1024::0           14                      
system.cpu.dcache.tags.age_task_id_blocks_1024::1          152                      
system.cpu.dcache.tags.age_task_id_blocks_1024::2          295                      
system.cpu.dcache.tags.occ_task_id_percent::1024     0.112549                      
system.cpu.dcache.tags.tag_accesses             85901                      
system.cpu.dcache.tags.data_accesses            85901                      
system.cpu.dcache.pwrStateResidencyTicks::UNDEFINED    176697500                      
system.cpu.dcache.ReadReq_hits::cpu.data        25902                      
system.cpu.dcache.ReadReq_hits::total           25902                      
system.cpu.dcache.WriteReq_hits::cpu.data        15715                      
system.cpu.dcache.WriteReq_hits::total          15715                      
system.cpu.dcache.LoadLockedReq_hits::cpu.data          235                      
system.cpu.dcache.LoadLockedReq_hits::total          235                      
system.cpu.dcache.StoreCondReq_hits::cpu.data          237                      
system.cpu.dcache.StoreCondReq_hits::total          237                      
system.cpu.dcache.demand_hits::cpu.data         41617                      
system.cpu.dcache.demand_hits::total            41617                      
system.cpu.dcache.overall_hits::cpu.data        41617                      
system.cpu.dcache.overall_hits::total           41617                      
system.cpu.dcache.ReadReq_misses::cpu.data          240                      
system.cpu.dcache.ReadReq_misses::total           240                      
system.cpu.dcache.WriteReq_misses::cpu.data          389                      
system.cpu.dcache.WriteReq_misses::total          389                      
system.cpu.dcache.LoadLockedReq_misses::cpu.data            2                      
system.cpu.dcache.LoadLockedReq_misses::total            2                      
system.cpu.dcache.demand_misses::cpu.data          629                      
system.cpu.dcache.demand_misses::total            629                      
system.cpu.dcache.overall_misses::cpu.data          629                      
system.cpu.dcache.overall_misses::total           629                      
system.cpu.dcache.ReadReq_miss_latency::cpu.data     20970500                      
system.cpu.dcache.ReadReq_miss_latency::total     20970500                      
system.cpu.dcache.WriteReq_miss_latency::cpu.data     31617500                      
system.cpu.dcache.WriteReq_miss_latency::total     31617500                      
system.cpu.dcache.LoadLockedReq_miss_latency::cpu.data       239500                      
system.cpu.dcache.LoadLockedReq_miss_latency::total       239500                      
system.cpu.dcache.demand_miss_latency::cpu.data     52588000                      
system.cpu.dcache.demand_miss_latency::total     52588000                      
system.cpu.dcache.overall_miss_latency::cpu.data     52588000                      
system.cpu.dcache.overall_miss_latency::total     52588000                      
system.cpu.dcache.ReadReq_accesses::cpu.data        26142                      
system.cpu.dcache.ReadReq_accesses::total        26142                      
system.cpu.dcache.WriteReq_accesses::cpu.data        16104                      
system.cpu.dcache.WriteReq_accesses::total        16104                      
system.cpu.dcache.LoadLockedReq_accesses::cpu.data          237                      
system.cpu.dcache.LoadLockedReq_accesses::total          237                      
system.cpu.dcache.StoreCondReq_accesses::cpu.data          237                      
system.cpu.dcache.StoreCondReq_accesses::total          237                      
system.cpu.dcache.demand_accesses::cpu.data        42246                      
system.cpu.dcache.demand_accesses::total        42246                      
system.cpu.dcache.overall_accesses::cpu.data        42246                      
system.cpu.dcache.overall_accesses::total        42246                      
system.cpu.dcache.ReadReq_miss_rate::cpu.data     0.009181                      
system.cpu.dcache.ReadReq_miss_rate::total     0.009181                      
system.cpu.dcache.WriteReq_miss_rate::cpu.data     0.024155                      
system.cpu.dcache.WriteReq_miss_rate::total     0.024155                      
system.cpu.dcache.LoadLockedReq_miss_rate::cpu.data     0.008439                      
system.cpu.dcache.LoadLockedReq_miss_rate::total     0.008439                      
system.cpu.dcache.demand_miss_rate::cpu.data     0.014889                      
system.cpu.dcache.demand_miss_rate::total     0.014889                      
system.cpu.dcache.overall_miss_rate::cpu.data     0.014889                      
system.cpu.dcache.overall_miss_rate::total     0.014889                      
system.cpu.dcache.ReadReq_avg_miss_latency::cpu.data 87377.083333                      
system.cpu.dcache.ReadReq_avg_miss_latency::total 87377.083333                      
system.cpu.dcache.WriteReq_avg_miss_latency::cpu.data 81278.920308                      
system.cpu.dcache.WriteReq_avg_miss_latency::total 81278.920308                      
system.cpu.dcache.LoadLockedReq_avg_miss_latency::cpu.data       119750                      
system.cpu.dcache.LoadLockedReq_avg_miss_latency::total       119750                      
system.cpu.dcache.demand_avg_miss_latency::cpu.data 83605.723370                      
system.cpu.dcache.demand_avg_miss_latency::total 83605.723370                      
system.cpu.dcache.overall_avg_miss_latency::cpu.data 83605.723370                      
system.cpu.dcache.overall_avg_miss_latency::total 83605.723370                      
system.cpu.dcache.blocked_cycles::no_mshrs            0                      
system.cpu.dcache.blocked_cycles::no_targets            0                      
system.cpu.dcache.blocked::no_mshrs                 0                      
system.cpu.dcache.blocked::no_targets               0                      
system.cpu.dcache.avg_blocked_cycles::no_mshrs          nan                      
system.cpu.dcache.avg_blocked_cycles::no_targets          nan                      
system.cpu.dcache.ReadReq_mshr_hits::cpu.data            3                      
system.cpu.dcache.ReadReq_mshr_hits::total            3                      
system.cpu.dcache.WriteReq_mshr_hits::cpu.data          167                      
system.cpu.dcache.WriteReq_mshr_hits::total          167                      
system.cpu.dcache.demand_mshr_hits::cpu.data          170                      
system.cpu.dcache.demand_mshr_hits::total          170                      
system.cpu.dcache.overall_mshr_hits::cpu.data          170                      
system.cpu.dcache.overall_mshr_hits::total          170                      
system.cpu.dcache.ReadReq_mshr_misses::cpu.data          237                      
system.cpu.dcache.ReadReq_mshr_misses::total          237                      
system.cpu.dcache.WriteReq_mshr_misses::cpu.data          222                      
system.cpu.dcache.WriteReq_mshr_misses::total          222                      
system.cpu.dcache.LoadLockedReq_mshr_misses::cpu.data            2                      
system.cpu.dcache.LoadLockedReq_mshr_misses::total            2                      
system.cpu.dcache.demand_mshr_misses::cpu.data          459                      
system.cpu.dcache.demand_mshr_misses::total          459                      
system.cpu.dcache.overall_mshr_misses::cpu.data          459                      
system.cpu.dcache.overall_mshr_misses::total          459                      
system.cpu.dcache.ReadReq_mshr_miss_latency::cpu.data     20509500                      
system.cpu.dcache.ReadReq_mshr_miss_latency::total     20509500                      
system.cpu.dcache.WriteReq_mshr_miss_latency::cpu.data     18572000                      
system.cpu.dcache.WriteReq_mshr_miss_latency::total     18572000                      
system.cpu.dcache.LoadLockedReq_mshr_miss_latency::cpu.data       237500                      
system.cpu.dcache.LoadLockedReq_mshr_miss_latency::total       237500                      
system.cpu.dcache.demand_mshr_miss_latency::cpu.data     39081500                      
system.cpu.dcache.demand_mshr_miss_latency::total     39081500                      
system.cpu.dcache.overall_mshr_miss_latency::cpu.data     39081500                      
system.cpu.dcache.overall_mshr_miss_latency::total     39081500                      
system.cpu.dcache.ReadReq_mshr_miss_rate::cpu.data     0.009066                      
system.cpu.dcache.ReadReq_mshr_miss_rate::total     0.009066                      
system.cpu.dcache.WriteReq_mshr_miss_rate::cpu.data     0.013785                      
system.cpu.dcache.WriteReq_mshr_miss_rate::total     0.013785                      
system.cpu.dcache.LoadLockedReq_mshr_miss_rate::cpu.data     0.008439                      
system.cpu.dcache.LoadLockedReq_mshr_miss_rate::total     0.008439                      
system.cpu.dcache.demand_mshr_miss_rate::cpu.data     0.010865                      
system.cpu.dcache.demand_mshr_miss_rate::total     0.010865                      
system.cpu.dcache.overall_mshr_miss_rate::cpu.data     0.010865                      
system.cpu.dcache.overall_mshr_miss_rate::total     0.010865                      
system.cpu.dcache.ReadReq_avg_mshr_miss_latency::cpu.data 86537.974684                      
system.cpu.dcache.ReadReq_avg_mshr_miss_latency::total 86537.974684                      
system.cpu.dcache.WriteReq_avg_mshr_miss_latency::cpu.data 83657.657658                      
system.cpu.dcache.WriteReq_avg_mshr_miss_latency::total 83657.657658                      
system.cpu.dcache.LoadLockedReq_avg_mshr_miss_latency::cpu.data       118750                      
system.cpu.dcache.LoadLockedReq_avg_mshr_miss_latency::total       118750                      
system.cpu.dcache.demand_avg_mshr_miss_latency::cpu.data 85144.880174                      
system.cpu.dcache.demand_avg_mshr_miss_latency::total 85144.880174                      
system.cpu.dcache.overall_avg_mshr_miss_latency::cpu.data 85144.880174                      
system.cpu.dcache.overall_avg_mshr_miss_latency::total 85144.880174                      
system.cpu.icache.tags.pwrStateResidencyTicks::UNDEFINED    176697500                      
system.cpu.icache.tags.replacements                73                      
system.cpu.icache.tags.tagsinuse           512.722910                      
system.cpu.icache.tags.total_refs               44403                      
system.cpu.icache.tags.sampled_refs               950                      
system.cpu.icache.tags.avg_refs             46.740000                      
system.cpu.icache.tags.warmup_cycle             87500                      
system.cpu.icache.tags.occ_blocks::cpu.inst   512.722910                      
system.cpu.icache.tags.occ_percent::cpu.inst     0.250353                      
system.cpu.icache.tags.occ_percent::total     0.250353                      
system.cpu.icache.tags.occ_task_id_blocks::1024          877                      
system.cpu.icache.tags.age_task_id_blocks_1024::0           51                      
system.cpu.icache.tags.age_task_id_blocks_1024::1          434                      
system.cpu.icache.tags.age_task_id_blocks_1024::2          392                      
system.cpu.icache.tags.occ_task_id_percent::1024     0.428223                      
system.cpu.icache.tags.tag_accesses             91658                      
system.cpu.icache.tags.data_accesses            91658                      
system.cpu.icache.pwrStateResidencyTicks::UNDEFINED    176697500                      
system.cpu.icache.ReadReq_hits::cpu.inst        44403                      
system.cpu.icache.ReadReq_hits::total           44403                      
system.cpu.icache.demand_hits::cpu.inst         44403                      
system.cpu.icache.demand_hits::total            44403                      
system.cpu.icache.overall_hits::cpu.inst        44403                      
system.cpu.icache.overall_hits::total           44403                      
system.cpu.icache.ReadReq_misses::cpu.inst          951                      
system.cpu.icache.ReadReq_misses::total           951                      
system.cpu.icache.demand_misses::cpu.inst          951                      
system.cpu.icache.demand_misses::total            951                      
system.cpu.icache.overall_misses::cpu.inst          951                      
system.cpu.icache.overall_misses::total           951                      
system.cpu.icache.ReadReq_miss_latency::cpu.inst     79998500                      
system.cpu.icache.ReadReq_miss_latency::total     79998500                      
system.cpu.icache.demand_miss_latency::cpu.inst     79998500                      
system.cpu.icache.demand_miss_latency::total     79998500                      
system.cpu.icache.overall_miss_latency::cpu.inst     79998500                      
system.cpu.icache.overall_miss_latency::total     79998500                      
system.cpu.icache.ReadReq_accesses::cpu.inst        45354                      
system.cpu.icache.ReadReq_accesses::total        45354                      
system.cpu.icache.demand_accesses::cpu.inst        45354                      
system.cpu.icache.demand_accesses::total        45354                      
system.cpu.icache.overall_accesses::cpu.inst        45354                      
system.cpu.icache.overall_accesses::total        45354                      
system.cpu.icache.ReadReq_miss_rate::cpu.inst     0.020968                      
system.cpu.icache.ReadReq_miss_rate::total     0.020968                      
system.cpu.icache.demand_miss_rate::cpu.inst     0.020968                      
system.cpu.icache.demand_miss_rate::total     0.020968                      
system.cpu.icache.overall_miss_rate::cpu.inst     0.020968                      
system.cpu.icache.overall_miss_rate::total     0.020968                      
system.cpu.icache.ReadReq_avg_miss_latency::cpu.inst 84120.399579                      
system.cpu.icache.ReadReq_avg_miss_latency::total 84120.399579                      
system.cpu.icache.demand_avg_miss_latency::cpu.inst 84120.399579                      
system.cpu.icache.demand_avg_miss_latency::total 84120.399579                      
system.cpu.icache.overall_avg_miss_latency::cpu.inst 84120.399579                      
system.cpu.icache.overall_avg_miss_latency::total 84120.399579                      
system.cpu.icache.blocked_cycles::no_mshrs            0                      
system.cpu.icache.blocked_cycles::no_targets            0                      
system.cpu.icache.blocked::no_mshrs                 0                      
system.cpu.icache.blocked::no_targets               0                      
system.cpu.icache.avg_blocked_cycles::no_mshrs          nan                      
system.cpu.icache.avg_blocked_cycles::no_targets          nan                      
system.cpu.icache.writebacks::writebacks           73                      
system.cpu.icache.writebacks::total                73                      
system.cpu.icache.ReadReq_mshr_misses::cpu.inst          951                      
system.cpu.icache.ReadReq_mshr_misses::total          951                      
system.cpu.icache.demand_mshr_misses::cpu.inst          951                      
system.cpu.icache.demand_mshr_misses::total          951                      
system.cpu.icache.overall_mshr_misses::cpu.inst          951                      
system.cpu.icache.overall_mshr_misses::total          951                      
system.cpu.icache.ReadReq_mshr_miss_latency::cpu.inst     79048500                      
system.cpu.icache.ReadReq_mshr_miss_latency::total     79048500                      
system.cpu.icache.demand_mshr_miss_latency::cpu.inst     79048500                      
system.cpu.icache.demand_mshr_miss_latency::total     79048500                      
system.cpu.icache.overall_mshr_miss_latency::cpu.inst     79048500                      
system.cpu.icache.overall_mshr_miss_latency::total     79048500                      
system.cpu.icache.ReadReq_mshr_miss_rate::cpu.inst     0.020968                      
system.cpu.icache.ReadReq_mshr_miss_rate::total     0.020968                      
system.cpu.icache.demand_mshr_miss_rate::cpu.inst     0.020968                      
system.cpu.icache.demand_mshr_miss_rate::total     0.020968                      
system.cpu.icache.overall_mshr_miss_rate::cpu.inst     0.020968                      
system.cpu.icache.overall_mshr_miss_rate::total     0.020968                      
system.cpu.icache.ReadReq_avg_mshr_miss_latency::cpu.inst 83121.451104                      
system.cpu.icache.ReadReq_avg_mshr_miss_latency::total 83121.451104                      
system.cpu.icache.demand_avg_mshr_miss_latency::cpu.inst 83121.451104                      
system.cpu.icache.demand_avg_mshr_miss_latency::total 83121.451104                      
system.cpu.icache.overall_avg_mshr_miss_latency::cpu.inst 83121.451104                      
system.cpu.icache.overall_avg_mshr_miss_latency::total 83121.451104                      
system.cpu.l2cache.tags.pwrStateResidencyTicks::UNDEFINED    176697500                      
system.cpu.l2cache.tags.replacements                0                      
system.cpu.l2cache.tags.tagsinuse          847.193950                      
system.cpu.l2cache.tags.total_refs                 79                      
system.cpu.l2cache.tags.sampled_refs             1405                      
system.cpu.l2cache.tags.avg_refs             0.056228                      
system.cpu.l2cache.tags.warmup_cycle            77000                      
system.cpu.l2cache.tags.occ_blocks::cpu.inst   541.571459                      
system.cpu.l2cache.tags.occ_blocks::cpu.data   305.622491                      
system.cpu.l2cache.tags.occ_percent::cpu.inst     0.016527                      
system.cpu.l2cache.tags.occ_percent::cpu.data     0.009327                      
system.cpu.l2cache.tags.occ_percent::total     0.025854                      
system.cpu.l2cache.tags.occ_task_id_blocks::1024         1405                      
system.cpu.l2cache.tags.age_task_id_blocks_1024::0           64                      
system.cpu.l2cache.tags.age_task_id_blocks_1024::1          586                      
system.cpu.l2cache.tags.age_task_id_blocks_1024::2          755                      
system.cpu.l2cache.tags.occ_task_id_percent::1024     0.042877                      
system.cpu.l2cache.tags.tag_accesses            13285                      
system.cpu.l2cache.tags.data_accesses           13285                      
system.cpu.l2cache.pwrStateResidencyTicks::UNDEFINED    176697500                      
system.cpu.l2cache.WritebackClean_hits::writebacks           73                      
system.cpu.l2cache.WritebackClean_hits::total           73                      
system.cpu.l2cache.ReadCleanReq_hits::cpu.inst            5                      
system.cpu.l2cache.ReadCleanReq_hits::total            5                      
system.cpu.l2cache.ReadSharedReq_hits::cpu.data            1                      
system.cpu.l2cache.ReadSharedReq_hits::total            1                      
system.cpu.l2cache.demand_hits::cpu.inst            5                      
system.cpu.l2cache.demand_hits::cpu.data            1                      
system.cpu.l2cache.demand_hits::total               6                      
system.cpu.l2cache.overall_hits::cpu.inst            5                      
system.cpu.l2cache.overall_hits::cpu.data            1                      
system.cpu.l2cache.overall_hits::total              6                      
system.cpu.l2cache.ReadExReq_misses::cpu.data          222                      
system.cpu.l2cache.ReadExReq_misses::total          222                      
system.cpu.l2cache.ReadCleanReq_misses::cpu.inst          946                      
system.cpu.l2cache.ReadCleanReq_misses::total          946                      
system.cpu.l2cache.ReadSharedReq_misses::cpu.data          238                      
system.cpu.l2cache.ReadSharedReq_misses::total          238                      
system.cpu.l2cache.demand_misses::cpu.inst          946                      
system.cpu.l2cache.demand_misses::cpu.data          460                      
system.cpu.l2cache.demand_misses::total          1406                      
system.cpu.l2cache.overall_misses::cpu.inst          946                      
system.cpu.l2cache.overall_misses::cpu.data          460                      
system.cpu.l2cache.overall_misses::total         1406                      
system.cpu.l2cache.ReadExReq_miss_latency::cpu.data     18238000                      
system.cpu.l2cache.ReadExReq_miss_latency::total     18238000                      
system.cpu.l2cache.ReadCleanReq_miss_latency::cpu.inst     77571000                      
system.cpu.l2cache.ReadCleanReq_miss_latency::total     77571000                      
system.cpu.l2cache.ReadSharedReq_miss_latency::cpu.data     20374000                      
system.cpu.l2cache.ReadSharedReq_miss_latency::total     20374000                      
system.cpu.l2cache.demand_miss_latency::cpu.inst     77571000                      
system.cpu.l2cache.demand_miss_latency::cpu.data     38612000                      
system.cpu.l2cache.demand_miss_latency::total    116183000                      
system.cpu.l2cache.overall_miss_latency::cpu.inst     77571000                      
system.cpu.l2cache.overall_miss_latency::cpu.data     38612000                      
system.cpu.l2cache.overall_miss_latency::total    116183000                      
system.cpu.l2cache.WritebackClean_accesses::writebacks           73                      
system.cpu.l2cache.WritebackClean_accesses::total           73                      
system.cpu.l2cache.ReadExReq_accesses::cpu.data          222                      
system.cpu.l2cache.ReadExReq_accesses::total          222                      
system.cpu.l2cache.ReadCleanReq_accesses::cpu.inst          951                      
system.cpu.l2cache.ReadCleanReq_accesses::total          951                      
system.cpu.l2cache.ReadSharedReq_accesses::cpu.data          239                      
system.cpu.l2cache.ReadSharedReq_accesses::total          239                      
system.cpu.l2cache.demand_accesses::cpu.inst          951                      
system.cpu.l2cache.demand_accesses::cpu.data          461                      
system.cpu.l2cache.demand_accesses::total         1412                      
system.cpu.l2cache.overall_accesses::cpu.inst          951                      
system.cpu.l2cache.overall_accesses::cpu.data          461                      
system.cpu.l2cache.overall_accesses::total         1412                      
system.cpu.l2cache.ReadExReq_miss_rate::cpu.data            1                      
system.cpu.l2cache.ReadExReq_miss_rate::total            1                      
system.cpu.l2cache.ReadCleanReq_miss_rate::cpu.inst     0.994742                      
system.cpu.l2cache.ReadCleanReq_miss_rate::total     0.994742                      
system.cpu.l2cache.ReadSharedReq_miss_rate::cpu.data     0.995816                      
system.cpu.l2cache.ReadSharedReq_miss_rate::total     0.995816                      
system.cpu.l2cache.demand_miss_rate::cpu.inst     0.994742                      
system.cpu.l2cache.demand_miss_rate::cpu.data     0.997831                      
system.cpu.l2cache.demand_miss_rate::total     0.995751                      
system.cpu.l2cache.overall_miss_rate::cpu.inst     0.994742                      
system.cpu.l2cache.overall_miss_rate::cpu.data     0.997831                      
system.cpu.l2cache.overall_miss_rate::total     0.995751                      
system.cpu.l2cache.ReadExReq_avg_miss_latency::cpu.data 82153.153153                      
system.cpu.l2cache.ReadExReq_avg_miss_latency::total 82153.153153                      
system.cpu.l2cache.ReadCleanReq_avg_miss_latency::cpu.inst 81998.942918                      
system.cpu.l2cache.ReadCleanReq_avg_miss_latency::total 81998.942918                      
system.cpu.l2cache.ReadSharedReq_avg_miss_latency::cpu.data 85605.042017                      
system.cpu.l2cache.ReadSharedReq_avg_miss_latency::total 85605.042017                      
system.cpu.l2cache.demand_avg_miss_latency::cpu.inst 81998.942918                      
system.cpu.l2cache.demand_avg_miss_latency::cpu.data 83939.130435                      
system.cpu.l2cache.demand_avg_miss_latency::total 82633.712660                      
system.cpu.l2cache.overall_avg_miss_latency::cpu.inst 81998.942918                      
system.cpu.l2cache.overall_avg_miss_latency::cpu.data 83939.130435                      
system.cpu.l2cache.overall_avg_miss_latency::total 82633.712660                      
system.cpu.l2cache.blocked_cycles::no_mshrs            0                      
system.cpu.l2cache.blocked_cycles::no_targets            0                      
system.cpu.l2cache.blocked::no_mshrs                0                      
system.cpu.l2cache.blocked::no_targets              0                      
system.cpu.l2cache.avg_blocked_cycles::no_mshrs          nan                      
system.cpu.l2cache.avg_blocked_cycles::no_targets          nan                      
system.cpu.l2cache.ReadExReq_mshr_misses::cpu.data          222                      
system.cpu.l2cache.ReadExReq_mshr_misses::total          222                      
system.cpu.l2cache.ReadCleanReq_mshr_misses::cpu.inst          946                      
system.cpu.l2cache.ReadCleanReq_mshr_misses::total          946                      
system.cpu.l2cache.ReadSharedReq_mshr_misses::cpu.data          238                      
system.cpu.l2cache.ReadSharedReq_mshr_misses::total          238                      
system.cpu.l2cache.demand_mshr_misses::cpu.inst          946                      
system.cpu.l2cache.demand_mshr_misses::cpu.data          460                      
system.cpu.l2cache.demand_mshr_misses::total         1406                      
system.cpu.l2cache.overall_mshr_misses::cpu.inst          946                      
system.cpu.l2cache.overall_mshr_misses::cpu.data          460                      
system.cpu.l2cache.overall_mshr_misses::total         1406                      
system.cpu.l2cache.ReadExReq_mshr_miss_latency::cpu.data     16018000                      
system.cpu.l2cache.ReadExReq_mshr_miss_latency::total     16018000                      
system.cpu.l2cache.ReadCleanReq_mshr_miss_latency::cpu.inst     68121000                      
system.cpu.l2cache.ReadCleanReq_mshr_miss_latency::total     68121000                      
system.cpu.l2cache.ReadSharedReq_mshr_miss_latency::cpu.data     17994000                      
system.cpu.l2cache.ReadSharedReq_mshr_miss_latency::total     17994000                      
system.cpu.l2cache.demand_mshr_miss_latency::cpu.inst     68121000                      
system.cpu.l2cache.demand_mshr_miss_latency::cpu.data     34012000                      
system.cpu.l2cache.demand_mshr_miss_latency::total    102133000                      
system.cpu.l2cache.overall_mshr_miss_latency::cpu.inst     68121000                      
system.cpu.l2cache.overall_mshr_miss_latency::cpu.data     34012000                      
system.cpu.l2cache.overall_mshr_miss_latency::total    102133000                      
system.cpu.l2cache.ReadExReq_mshr_miss_rate::cpu.data            1                      
system.cpu.l2cache.ReadExReq_mshr_miss_rate::total            1                      
system.cpu.l2cache.ReadCleanReq_mshr_miss_rate::cpu.inst     0.994742                      
system.cpu.l2cache.ReadCleanReq_mshr_miss_rate::total     0.994742                      
system.cpu.l2cache.ReadSharedReq_mshr_miss_rate::cpu.data     0.995816                      
system.cpu.l2cache.ReadSharedReq_mshr_miss_rate::total     0.995816                      
system.cpu.l2cache.demand_mshr_miss_rate::cpu.inst     0.994742                      
system.cpu.l2cache.demand_mshr_miss_rate::cpu.data     0.997831                      
system.cpu.l2cache.demand_mshr_miss_rate::total     0.995751                      
system.cpu.l2cache.overall_mshr_miss_rate::cpu.inst     0.994742                      
system.cpu.l2cache.overall_mshr_miss_rate::cpu.data     0.997831                      
system.cpu.l2cache.overall_mshr_miss_rate::total     0.995751                      
system.cpu.l2cache.ReadExReq_avg_mshr_miss_latency::cpu.data 72153.153153                      
system.cpu.l2cache.ReadExReq_avg_mshr_miss_latency::total 72153.153153                      
system.cpu.l2cache.ReadCleanReq_avg_mshr_miss_latency::cpu.inst 72009.513742                      
system.cpu.l2cache.ReadCleanReq_avg_mshr_miss_latency::total 72009.513742                      
system.cpu.l2cache.ReadSharedReq_avg_mshr_miss_latency::cpu.data 75605.042017                      
system.cpu.l2cache.ReadSharedReq_avg_mshr_miss_latency::total 75605.042017                      
system.cpu.l2cache.demand_avg_mshr_miss_latency::cpu.inst 72009.513742                      
system.cpu.l2cache.demand_avg_mshr_miss_latency::cpu.data 73939.130435                      
system.cpu.l2cache.demand_avg_mshr_miss_latency::total 72640.825036                      
system.cpu.l2cache.overall_avg_mshr_miss_latency::cpu.inst 72009.513742                      
system.cpu.l2cache.overall_avg_mshr_miss_latency::cpu.data 73939.130435                      
system.cpu.l2cache.overall_avg_mshr_miss_latency::total 72640.825036                      
system.cpu.toL2Bus.snoop_filter.tot_requests         1485                      
system.cpu.toL2Bus.snoop_filter.hit_single_requests           74                      
system.cpu.toL2Bus.snoop_filter.hit_multi_requests            0                      
system.cpu.toL2Bus.snoop_filter.tot_snoops            0                      
system.cpu.toL2Bus.snoop_filter.hit_single_snoops            0                      
system.cpu.toL2Bus.snoop_filter.hit_multi_snoops            0                      
system.cpu.toL2Bus.pwrStateResidencyTicks::UNDEFINED    176697500                      
system.cpu.toL2Bus.trans_dist::ReadResp          1189                      
system.cpu.toL2Bus.trans_dist::WritebackClean           73                      
system.cpu.toL2Bus.trans_dist::ReadExReq          222                      
system.cpu.toL2Bus.trans_dist::ReadExResp          222                      
system.cpu.toL2Bus.trans_dist::ReadCleanReq          951                      
system.cpu.toL2Bus.trans_dist::ReadSharedReq          239                      
system.cpu.toL2Bus.pkt_count_system.cpu.icache.mem_side::system.cpu.l2cache.cpu_side         1974                      
system.cpu.toL2Bus.pkt_count_system.cpu.dcache.mem_side::system.cpu.l2cache.cpu_side          922                      
system.cpu.toL2Bus.pkt_count::total              2896                      
system.cpu.toL2Bus.pkt_size_system.cpu.icache.mem_side::system.cpu.l2cache.cpu_side        65472                      
system.cpu.toL2Bus.pkt_size_system.cpu.dcache.mem_side::system.cpu.l2cache.cpu_side        29504                      
system.cpu.toL2Bus.pkt_size::total              94976                      
system.cpu.toL2Bus.snoops                           0                      
system.cpu.toL2Bus.snoopTraffic                     0                      
system.cpu.toL2Bus.snoop_fanout::samples         1412                      
system.cpu.toL2Bus.snoop_fanout::mean        0.000708                      
system.cpu.toL2Bus.snoop_fanout::stdev       0.026612                      
system.cpu.toL2Bus.snoop_fanout::underflows            0      0.00%      0.00%
system.cpu.toL2Bus.snoop_fanout::0               1411     99.93%     99.93%
system.cpu.toL2Bus.snoop_fanout::1                  1      0.07%    100.00%
system.cpu.toL2Bus.snoop_fanout::2                  0      0.00%    100.00%
system.cpu.toL2Bus.snoop_fanout::overflows            0      0.00%    100.00%
system.cpu.toL2Bus.snoop_fanout::min_value            0                      
system.cpu.toL2Bus.snoop_fanout::max_value            1                      
system.cpu.toL2Bus.snoop_fanout::total           1412                      
system.cpu.toL2Bus.reqLayer0.occupancy         815500                      
system.cpu.toL2Bus.reqLayer0.utilization          0.5                      
system.cpu.toL2Bus.respLayer0.occupancy       1425000                      
system.cpu.toL2Bus.respLayer0.utilization          0.8                      
system.cpu.toL2Bus.respLayer1.occupancy        691500                      
system.cpu.toL2Bus.respLayer1.utilization          0.4                      
system.membus.snoop_filter.tot_requests          1405                      
system.membus.snoop_filter.hit_single_requests            0                      
system.membus.snoop_filter.hit_multi_requests            0                      
system.membus.snoop_filter.tot_snoops               0                      
system.membus.snoop_filter.hit_single_snoops            0                      
system.membus.snoop_filter.hit_multi_snoops            0                      
system.membus.pwrStateResidencyTicks::UNDEFINED    176697500                      
system.membus.trans_dist::ReadResp               1183                      
system.membus.trans_dist::ReadExReq               222                      
system.membus.trans_dist::ReadExResp              222                      
system.membus.trans_dist::ReadSharedReq          1183                      
system.membus.pkt_count_system.cpu.l2cache.mem_side::system.physmem.port         2810                      
system.membus.pkt_count::total                   2810                      
system.membus.pkt_size_system.cpu.l2cache.mem_side::system.physmem.port        89920                      
system.membus.pkt_size::total                   89920                      
system.membus.snoops                                0                      
system.membus.snoopTraffic                          0                      
system.membus.snoop_fanout::samples              1405                      
system.membus.snoop_fanout::mean                    0                      
system.membus.snoop_fanout::stdev                   0                      
system.membus.snoop_fanout::underflows              0      0.00%      0.00%
system.membus.snoop_fanout::0                    1405    100.00%    100.00%
system.membus.snoop_fanout::1                       0      0.00%    100.00%
system.membus.snoop_fanout::overflows               0      0.00%    100.00%
system.membus.snoop_fanout::min_value               0                      
system.membus.snoop_fanout::max_value               0                      
system.membus.snoop_fanout::total                1405                      
system.membus.reqLayer0.occupancy             1632000                      
system.membus.reqLayer0.utilization               0.9                      
system.membus.respLayer1.occupancy            7478250                      
system.membus.respLayer1.utilization              4.2                      

---------- End Simulation Statistics   ----------
