
---------- Begin Simulation Statistics ----------
sim_seconds                                  0.000281                      
sim_ticks                                   281322000                      
final_tick                                  281322000                      
sim_freq                                 1000000000000                      
host_inst_rate                                 100308                      
host_op_rate                                   100614                      
host_tick_rate                               71730563                      
host_mem_usage                                 409192                      
host_seconds                                     3.92                      
sim_insts                                      393394                      
sim_ops                                        394599                      
system.voltage_domain.voltage                       1                      
system.clk_domain.clock                          1000                      
system.physmem.pwrStateResidencyTicks::UNDEFINED    281322000                      
system.physmem.bytes_read::cpu.inst             74560                      
system.physmem.bytes_read::cpu.data             34048                      
system.physmem.bytes_read::total               108608                      
system.physmem.bytes_inst_read::cpu.inst        74560                      
system.physmem.bytes_inst_read::total           74560                      
system.physmem.num_reads::cpu.inst               1165                      
system.physmem.num_reads::cpu.data                532                      
system.physmem.num_reads::total                  1697                      
system.physmem.bw_read::cpu.inst            265034373                      
system.physmem.bw_read::cpu.data            121028572                      
system.physmem.bw_read::total               386062945                      
system.physmem.bw_inst_read::cpu.inst       265034373                      
system.physmem.bw_inst_read::total          265034373                      
system.physmem.bw_total::cpu.inst           265034373                      
system.physmem.bw_total::cpu.data           121028572                      
system.physmem.bw_total::total              386062945                      
system.physmem.readReqs                          1697                      
system.physmem.writeReqs                            0                      
system.physmem.readBursts                        1697                      
system.physmem.writeBursts                          0                      
system.physmem.bytesReadDRAM                   108608                      
system.physmem.bytesReadWrQ                         0                      
system.physmem.bytesWritten                         0                      
system.physmem.bytesReadSys                    108608                      
system.physmem.bytesWrittenSys                      0                      
system.physmem.servicedByWrQ                        0                      
system.physmem.mergedWrBursts                       0                      
system.physmem.neitherReadNorWriteReqs              0                      
system.physmem.perBankRdBursts::0                 226                      
system.physmem.perBankRdBursts::1                 261                      
system.physmem.perBankRdBursts::2                 158                      
system.physmem.perBankRdBursts::3                 170                      
system.physmem.perBankRdBursts::4                 140                      
system.physmem.perBankRdBursts::5                  85                      
system.physmem.perBankRdBursts::6                  99                      
system.physmem.perBankRdBursts::7                  44                      
system.physmem.perBankRdBursts::8                  56                      
system.physmem.perBankRdBursts::9                  51                      
system.physmem.perBankRdBursts::10                 21                      
system.physmem.perBankRdBursts::11                 41                      
system.physmem.perBankRdBursts::12                 73                      
system.physmem.perBankRdBursts::13                 76                      
system.physmem.perBankRdBursts::14                 92                      
system.physmem.perBankRdBursts::15                104                      
system.physmem.perBankWrBursts::0                   0                      
system.physmem.perBankWrBursts::1                   0                      
system.physmem.perBankWrBursts::2                   0                      
system.physmem.perBankWrBursts::3                   0                      
system.physmem.perBankWrBursts::4                   0                      
system.physmem.perBankWrBursts::5                   0                      
system.physmem.perBankWrBursts::6                   0                      
system.physmem.perBankWrBursts::7                   0                      
system.physmem.perBankWrBursts::8                   0                      
system.physmem.perBankWrBursts::9                   0                      
system.physmem.perBankWrBursts::10                  0                      
system.physmem.perBankWrBursts::11                  0                      
system.physmem.perBankWrBursts::12                  0                      
system.physmem.perBankWrBursts::13                  0                      
system.physmem.perBankWrBursts::14                  0                      
system.physmem.perBankWrBursts::15                  0                      
system.physmem.numRdRetry                           0                      
system.physmem.numWrRetry                           0                      
system.physmem.totGap                       281242500                      
system.physmem.readPktSize::0                       0                      
system.physmem.readPktSize::1                       0                      
system.physmem.readPktSize::2                       0                      
system.physmem.readPktSize::3                       0                      
system.physmem.readPktSize::4                       0                      
system.physmem.readPktSize::5                       0                      
system.physmem.readPktSize::6                    1697                      
system.physmem.writePktSize::0                      0                      
system.physmem.writePktSize::1                      0                      
system.physmem.writePktSize::2                      0                      
system.physmem.writePktSize::3                      0                      
system.physmem.writePktSize::4                      0                      
system.physmem.writePktSize::5                      0                      
system.physmem.writePktSize::6                      0                      
system.physmem.rdQLenPdf::0                      1083                      
system.physmem.rdQLenPdf::1                       423                      
system.physmem.rdQLenPdf::2                       136                      
system.physmem.rdQLenPdf::3                        41                      
system.physmem.rdQLenPdf::4                        13                      
system.physmem.rdQLenPdf::5                         1                      
system.physmem.rdQLenPdf::6                         0                      
system.physmem.rdQLenPdf::7                         0                      
system.physmem.rdQLenPdf::8                         0                      
system.physmem.rdQLenPdf::9                         0                      
system.physmem.rdQLenPdf::10                        0                      
system.physmem.rdQLenPdf::11                        0                      
system.physmem.rdQLenPdf::12                        0                      
system.physmem.rdQLenPdf::13                        0                      
system.physmem.rdQLenPdf::14                        0                      
system.physmem.rdQLenPdf::15                        0                      
system.physmem.rdQLenPdf::16                        0                      
system.physmem.rdQLenPdf::17                        0                      
system.physmem.rdQLenPdf::18                        0                      
system.physmem.rdQLenPdf::19                        0                      
system.physmem.rdQLenPdf::20                        0                      
system.physmem.rdQLenPdf::21                        0                      
system.physmem.rdQLenPdf::22                        0                      
system.physmem.rdQLenPdf::23                        0                      
system.physmem.rdQLenPdf::24                        0                      
system.physmem.rdQLenPdf::25                        0                      
system.physmem.rdQLenPdf::26                        0                      
system.physmem.rdQLenPdf::27                        0                      
system.physmem.rdQLenPdf::28                        0                      
system.physmem.rdQLenPdf::29                        0                      
system.physmem.rdQLenPdf::30                        0                      
system.physmem.rdQLenPdf::31                        0                      
system.physmem.wrQLenPdf::0                         0                      
system.physmem.wrQLenPdf::1                         0                      
system.physmem.wrQLenPdf::2                         0                      
system.physmem.wrQLenPdf::3                         0                      
system.physmem.wrQLenPdf::4                         0                      
system.physmem.wrQLenPdf::5                         0                      
system.physmem.wrQLenPdf::6                         0                      
system.physmem.wrQLenPdf::7                         0                      
system.physmem.wrQLenPdf::8                         0                      
system.physmem.wrQLenPdf::9                         0                      
system.physmem.wrQLenPdf::10                        0                      
system.physmem.wrQLenPdf::11                        0                      
system.physmem.wrQLenPdf::12                        0                      
system.physmem.wrQLenPdf::13                        0                      
system.physmem.wrQLenPdf::14                        0                      
system.physmem.wrQLenPdf::15                        0                      
system.physmem.wrQLenPdf::16                        0                      
system.physmem.wrQLenPdf::17                        0                      
system.physmem.wrQLenPdf::18                        0                      
system.physmem.wrQLenPdf::19                        0                      
system.physmem.wrQLenPdf::20                        0                      
system.physmem.wrQLenPdf::21                        0                      
system.physmem.wrQLenPdf::22                        0                      
system.physmem.wrQLenPdf::23                        0                      
system.physmem.wrQLenPdf::24                        0                      
system.physmem.wrQLenPdf::25                        0                      
system.physmem.wrQLenPdf::26                        0                      
system.physmem.wrQLenPdf::27                        0                      
system.physmem.wrQLenPdf::28                        0                      
system.physmem.wrQLenPdf::29                        0                      
system.physmem.wrQLenPdf::30                        0                      
system.physmem.wrQLenPdf::31                        0                      
system.physmem.wrQLenPdf::32                        0                      
system.physmem.wrQLenPdf::33                        0                      
system.physmem.wrQLenPdf::34                        0                      
system.physmem.wrQLenPdf::35                        0                      
system.physmem.wrQLenPdf::36                        0                      
system.physmem.wrQLenPdf::37                        0                      
system.physmem.wrQLenPdf::38                        0                      
system.physmem.wrQLenPdf::39                        0                      
system.physmem.wrQLenPdf::40                        0                      
system.physmem.wrQLenPdf::41                        0                      
system.physmem.wrQLenPdf::42                        0                      
system.physmem.wrQLenPdf::43                        0                      
system.physmem.wrQLenPdf::44                        0                      
system.physmem.wrQLenPdf::45                        0                      
system.physmem.wrQLenPdf::46                        0                      
system.physmem.wrQLenPdf::47                        0                      
system.physmem.wrQLenPdf::48                        0                      
system.physmem.wrQLenPdf::49                        0                      
system.physmem.wrQLenPdf::50                        0                      
system.physmem.wrQLenPdf::51                        0                      
system.physmem.wrQLenPdf::52                        0                      
system.physmem.wrQLenPdf::53                        0                      
system.physmem.wrQLenPdf::54                        0                      
system.physmem.wrQLenPdf::55                        0                      
system.physmem.wrQLenPdf::56                        0                      
system.physmem.wrQLenPdf::57                        0                      
system.physmem.wrQLenPdf::58                        0                      
system.physmem.wrQLenPdf::59                        0                      
system.physmem.wrQLenPdf::60                        0                      
system.physmem.wrQLenPdf::61                        0                      
system.physmem.wrQLenPdf::62                        0                      
system.physmem.wrQLenPdf::63                        0                      
system.physmem.bytesPerActivate::samples          364                      
system.physmem.bytesPerActivate::mean      293.626373                      
system.physmem.bytesPerActivate::gmean     198.356833                      
system.physmem.bytesPerActivate::stdev     264.757892                      
system.physmem.bytesPerActivate::0-127            100     27.47%     27.47%
system.physmem.bytesPerActivate::128-255          106     29.12%     56.59%
system.physmem.bytesPerActivate::256-383           46     12.63%     69.23%
system.physmem.bytesPerActivate::384-511           32      8.79%     78.02%
system.physmem.bytesPerActivate::512-639           35      9.61%     87.63%
system.physmem.bytesPerActivate::640-767           17      4.67%     92.30%
system.physmem.bytesPerActivate::768-895            4      1.09%     93.40%
system.physmem.bytesPerActivate::896-1023            7      1.92%     95.32%
system.physmem.bytesPerActivate::1024-1151           17      4.67%     99.99%
system.physmem.bytesPerActivate::total            364                      
system.physmem.totQLat                       25644250                      
system.physmem.totMemAccLat                  57463000                      
system.physmem.totBusLat                      8485000                      
system.physmem.avgQLat                       15111.52                      
system.physmem.avgBusLat                      5000.00                      
system.physmem.avgMemAccLat                  33861.52                      
system.physmem.avgRdBW                         386.06                      
system.physmem.avgWrBW                           0.00                      
system.physmem.avgRdBWSys                      386.06                      
system.physmem.avgWrBWSys                        0.00                      
system.physmem.peakBW                        12800.00                      
system.physmem.busUtil                           3.01                      
system.physmem.busUtilRead                       3.01                      
system.physmem.busUtilWrite                      0.00                      
system.physmem.avgRdQLen                         1.41                      
system.physmem.avgWrQLen                         0.00                      
system.physmem.readRowHits                       1323                      
system.physmem.writeRowHits                         0                      
system.physmem.readRowHitRate                   77.96                      
system.physmem.writeRowHitRate                    nan                      
system.physmem.avgGap                       165729.22                      
system.physmem.pageHitRate                      77.96                      
system.physmem_0.actEnergy                    1706460                      
system.physmem_0.preEnergy                     895620                      
system.physmem_0.readEnergy                   8446620                      
system.physmem_0.writeEnergy                        0                      
system.physmem_0.refreshEnergy               22127040                      
system.physmem_0.actBackEnergy               16795050                      
system.physmem_0.preBackEnergy                 457920                      
system.physmem_0.actPowerDownEnergy         108144390                      
system.physmem_0.prePowerDownEnergy           2357760                      
system.physmem_0.selfRefreshEnergy                  0                      
system.physmem_0.totalEnergy                160930860                      
system.physmem_0.averagePower              572.052167                      
system.physmem_0.totalIdleTime              243145500                      
system.physmem_0.memoryStateTime::IDLE         197500                      
system.physmem_0.memoryStateTime::REF         9360000                      
system.physmem_0.memoryStateTime::SREF              0                      
system.physmem_0.memoryStateTime::PRE_PDN      6135750                      
system.physmem_0.memoryStateTime::ACT        28450750                      
system.physmem_0.memoryStateTime::ACT_PDN    237178000                      
system.physmem_1.actEnergy                     963900                      
system.physmem_1.preEnergy                     485760                      
system.physmem_1.readEnergy                   3669960                      
system.physmem_1.writeEnergy                        0                      
system.physmem_1.refreshEnergy                8604960                      
system.physmem_1.actBackEnergy                8117940                      
system.physmem_1.preBackEnergy                 316800                      
system.physmem_1.actPowerDownEnergy          31250250                      
system.physmem_1.prePowerDownEnergy           7338720                      
system.physmem_1.selfRefreshEnergy           42564840                      
system.physmem_1.totalEnergy                103313130                      
system.physmem_1.averagePower              367.241559                      
system.physmem_1.totalIdleTime              262691250                      
system.physmem_1.memoryStateTime::IDLE         445000                      
system.physmem_1.memoryStateTime::REF         3646000                      
system.physmem_1.memoryStateTime::SREF      175052750                      
system.physmem_1.memoryStateTime::PRE_PDN     19109500                      
system.physmem_1.memoryStateTime::ACT        14524000                      
system.physmem_1.memoryStateTime::ACT_PDN     68544750                      
system.pwrStateResidencyTicks::UNDEFINED    281322000                      
system.cpu.branchPred.lookups                  110861                      
system.cpu.branchPred.condPredicted             78512                      
system.cpu.branchPred.condIncorrect             10945                      
system.cpu.branchPred.BTBLookups                70673                      
system.cpu.branchPred.BTBHits                   39524                      
system.cpu.branchPred.BTBCorrect                    0                      
system.cpu.branchPred.BTBHitPct             55.925176                      
system.cpu.branchPred.usedRAS                       0                      
system.cpu.branchPred.RASInCorrect                  0                      
system.cpu.branchPred.indirectLookups           22897                      
system.cpu.branchPred.indirectHits              13442                      
system.cpu.branchPred.indirectMisses             9455                      
system.cpu.branchPredindirectMispredicted         4695                      
system.cpu_clk_domain.clock                       500                      
system.cpu.dtb.read_hits                            0                      
system.cpu.dtb.read_misses                          0                      
system.cpu.dtb.read_accesses                        0                      
system.cpu.dtb.write_hits                           0                      
system.cpu.dtb.write_misses                         0                      
system.cpu.dtb.write_accesses                       0                      
system.cpu.dtb.hits                                 0                      
system.cpu.dtb.misses                               0                      
system.cpu.dtb.accesses                             0                      
system.cpu.itb.read_hits                            0                      
system.cpu.itb.read_misses                          0                      
system.cpu.itb.read_accesses                        0                      
system.cpu.itb.write_hits                           0                      
system.cpu.itb.write_misses                         0                      
system.cpu.itb.write_accesses                       0                      
system.cpu.itb.hits                                 0                      
system.cpu.itb.misses                               0                      
system.cpu.itb.accesses                             0                      
system.cpu.workload.numSyscalls                   216                      
system.cpu.pwrStateResidencyTicks::ON       281322000                      
system.cpu.numCycles                           562645                      
system.cpu.numWorkItemsStarted                      0                      
system.cpu.numWorkItemsCompleted                    0                      
system.cpu.fetch.icacheStallCycles              94319                      
system.cpu.fetch.Insts                         484568                      
system.cpu.fetch.Branches                      110861                      
system.cpu.fetch.predictedBranches              52966                      
system.cpu.fetch.Cycles                        355724                      
system.cpu.fetch.SquashCycles                   22354                      
system.cpu.fetch.MiscStallCycles                   11                      
system.cpu.fetch.IcacheWaitRetryStallCycles           66                      
system.cpu.fetch.CacheLines                     67876                      
system.cpu.fetch.IcacheSquashes                  1716                      
system.cpu.fetch.rateDist::samples             461297                      
system.cpu.fetch.rateDist::mean              1.053169                      
system.cpu.fetch.rateDist::stdev             0.957110                      
system.cpu.fetch.rateDist::underflows               0      0.00%      0.00%
system.cpu.fetch.rateDist::0                   118475     25.68%     25.68%
system.cpu.fetch.rateDist::1                   249435     54.07%     79.75%
system.cpu.fetch.rateDist::2                    63482     13.76%     93.51%
system.cpu.fetch.rateDist::3                    17525      3.79%     97.31%
system.cpu.fetch.rateDist::4                     8084      1.75%     99.06%
system.cpu.fetch.rateDist::5                     2369      0.51%     99.58%
system.cpu.fetch.rateDist::6                     1225      0.26%     99.84%
system.cpu.fetch.rateDist::7                      297      0.06%     99.91%
system.cpu.fetch.rateDist::8                      405      0.08%     99.99%
system.cpu.fetch.rateDist::overflows                0      0.00%     99.99%
system.cpu.fetch.rateDist::min_value                0                      
system.cpu.fetch.rateDist::max_value                8                      
system.cpu.fetch.rateDist::total               461297                      
system.cpu.fetch.branchRate                  0.197035                      
system.cpu.fetch.rate                        0.861232                      
system.cpu.decode.IdleCycles                    98275                      
system.cpu.decode.BlockedCycles                 52333                      
system.cpu.decode.RunCycles                    300108                      
system.cpu.decode.UnblockCycles                  2053                      
system.cpu.decode.SquashCycles                   8528                      
system.cpu.decode.BranchResolved                38704                      
system.cpu.decode.BranchMispred                  2773                      
system.cpu.decode.DecodedInsts                 460008                      
system.cpu.decode.SquashedInsts                  4687                      
system.cpu.rename.SquashCycles                   8528                      
system.cpu.rename.IdleCycles                   109159                      
system.cpu.rename.BlockCycles                    3098                      
system.cpu.rename.serializeStallCycles          43530                      
system.cpu.rename.RunCycles                    291258                      
system.cpu.rename.UnblockCycles                  5724                      
system.cpu.rename.RenamedInsts                 448413                      
system.cpu.rename.ROBFullEvents                    23                      
system.cpu.rename.IQFullEvents                      6                      
system.cpu.rename.LQFullEvents                   1356                      
system.cpu.rename.SQFullEvents                   2565                      
system.cpu.rename.RenamedOperands              298794                      
system.cpu.rename.RenameLookups                553894                      
system.cpu.rename.int_rename_lookups           552327                      
system.cpu.rename.fp_rename_lookups              1567                      
system.cpu.rename.CommittedMaps                261763                      
system.cpu.rename.UndoneMaps                    37031                      
system.cpu.rename.serializingInsts               1953                      
system.cpu.rename.tempSerializingInsts           1954                      
system.cpu.rename.skidInsts                      3799                      
system.cpu.memDep0.insertedLoads               106724                      
system.cpu.memDep0.insertedStores               63369                      
system.cpu.memDep0.conflictingLoads              1134                      
system.cpu.memDep0.conflictingStores              154                      
system.cpu.iq.iqInstsAdded                     425175                      
system.cpu.iq.iqNonSpecInstsAdded                3197                      
system.cpu.iq.iqInstsIssued                    422207                      
system.cpu.iq.iqSquashedInstsIssued               132                      
system.cpu.iq.iqSquashedInstsExamined           33772                      
system.cpu.iq.iqSquashedOperandsExamined        14095                      
system.cpu.iq.iqSquashedNonSpecRemoved            113                      
system.cpu.iq.issued_per_cycle::samples        461297                      
system.cpu.iq.issued_per_cycle::mean         0.915260                      
system.cpu.iq.issued_per_cycle::stdev        0.989918                      
system.cpu.iq.issued_per_cycle::underflows            0      0.00%      0.00%
system.cpu.iq.issued_per_cycle::0              171875     37.25%     37.25%
system.cpu.iq.issued_per_cycle::1              200868     43.54%     80.80%
system.cpu.iq.issued_per_cycle::2               61122     13.25%     94.05%
system.cpu.iq.issued_per_cycle::3               18983      4.11%     98.16%
system.cpu.iq.issued_per_cycle::4                4386      0.95%     99.11%
system.cpu.iq.issued_per_cycle::5                1412      0.30%     99.42%
system.cpu.iq.issued_per_cycle::6                1059      0.22%     99.65%
system.cpu.iq.issued_per_cycle::7                1548      0.33%     99.99%
system.cpu.iq.issued_per_cycle::8                  44      0.00%     99.99%
system.cpu.iq.issued_per_cycle::overflows            0      0.00%     99.99%
system.cpu.iq.issued_per_cycle::min_value            0                      
system.cpu.iq.issued_per_cycle::max_value            8                      
system.cpu.iq.issued_per_cycle::total          461297                      
system.cpu.iq.fu_full::No_OpClass                   0      0.00%      0.00%
system.cpu.iq.fu_full::IntAlu                      35      1.80%      1.80%
system.cpu.iq.fu_full::IntMult                      0      0.00%      1.80%
system.cpu.iq.fu_full::IntDiv                       0      0.00%      1.80%
system.cpu.iq.fu_full::FloatAdd                     0      0.00%      1.80%
system.cpu.iq.fu_full::FloatCmp                     0      0.00%      1.80%
system.cpu.iq.fu_full::FloatCvt                     0      0.00%      1.80%
system.cpu.iq.fu_full::FloatMult                    0      0.00%      1.80%
system.cpu.iq.fu_full::FloatMultAcc                 0      0.00%      1.80%
system.cpu.iq.fu_full::FloatDiv                     0      0.00%      1.80%
system.cpu.iq.fu_full::FloatMisc                    0      0.00%      1.80%
system.cpu.iq.fu_full::FloatSqrt                    0      0.00%      1.80%
system.cpu.iq.fu_full::SimdAdd                      0      0.00%      1.80%
system.cpu.iq.fu_full::SimdAddAcc                   0      0.00%      1.80%
system.cpu.iq.fu_full::SimdAlu                      0      0.00%      1.80%
system.cpu.iq.fu_full::SimdCmp                      0      0.00%      1.80%
system.cpu.iq.fu_full::SimdCvt                      0      0.00%      1.80%
system.cpu.iq.fu_full::SimdMisc                     0      0.00%      1.80%
system.cpu.iq.fu_full::SimdMult                     0      0.00%      1.80%
system.cpu.iq.fu_full::SimdMultAcc                  0      0.00%      1.80%
system.cpu.iq.fu_full::SimdShift                    0      0.00%      1.80%
system.cpu.iq.fu_full::SimdShiftAcc                 0      0.00%      1.80%
system.cpu.iq.fu_full::SimdSqrt                     0      0.00%      1.80%
system.cpu.iq.fu_full::SimdFloatAdd                 0      0.00%      1.80%
system.cpu.iq.fu_full::SimdFloatAlu                 0      0.00%      1.80%
system.cpu.iq.fu_full::SimdFloatCmp                 0      0.00%      1.80%
system.cpu.iq.fu_full::SimdFloatCvt                 0      0.00%      1.80%
system.cpu.iq.fu_full::SimdFloatDiv                 0      0.00%      1.80%
system.cpu.iq.fu_full::SimdFloatMisc                0      0.00%      1.80%
system.cpu.iq.fu_full::SimdFloatMult                0      0.00%      1.80%
system.cpu.iq.fu_full::SimdFloatMultAcc             0      0.00%      1.80%
system.cpu.iq.fu_full::SimdFloatSqrt                0      0.00%      1.80%
system.cpu.iq.fu_full::MemRead                    608     31.42%     33.22%
system.cpu.iq.fu_full::MemWrite                  1289     66.61%     99.84%
system.cpu.iq.fu_full::FloatMemRead                 0      0.00%     99.84%
system.cpu.iq.fu_full::FloatMemWrite                3      0.15%     99.99%
system.cpu.iq.fu_full::IprAccess                    0      0.00%     99.99%
system.cpu.iq.fu_full::InstPrefetch                 0      0.00%     99.99%
system.cpu.iq.FU_type_0::No_OpClass               236      0.05%      0.05%
system.cpu.iq.FU_type_0::IntAlu                252767     59.86%     59.92%
system.cpu.iq.FU_type_0::IntMult                  629      0.14%     60.07%
system.cpu.iq.FU_type_0::IntDiv                     5      0.00%     60.07%
system.cpu.iq.FU_type_0::FloatAdd                  11      0.00%     60.07%
system.cpu.iq.FU_type_0::FloatCmp                 165      0.03%     60.11%
system.cpu.iq.FU_type_0::FloatCvt                 110      0.02%     60.14%
system.cpu.iq.FU_type_0::FloatMult                  8      0.00%     60.14%
system.cpu.iq.FU_type_0::FloatMultAcc              23      0.00%     60.14%
system.cpu.iq.FU_type_0::FloatDiv                  11      0.00%     60.15%
system.cpu.iq.FU_type_0::FloatMisc                122      0.02%     60.18%
system.cpu.iq.FU_type_0::FloatSqrt                  5      0.00%     60.18%
system.cpu.iq.FU_type_0::SimdAdd                    0      0.00%     60.18%
system.cpu.iq.FU_type_0::SimdAddAcc                 0      0.00%     60.18%
system.cpu.iq.FU_type_0::SimdAlu                    0      0.00%     60.18%
system.cpu.iq.FU_type_0::SimdCmp                    0      0.00%     60.18%
system.cpu.iq.FU_type_0::SimdCvt                    0      0.00%     60.18%
system.cpu.iq.FU_type_0::SimdMisc                   0      0.00%     60.18%
system.cpu.iq.FU_type_0::SimdMult                   0      0.00%     60.18%
system.cpu.iq.FU_type_0::SimdMultAcc                0      0.00%     60.18%
system.cpu.iq.FU_type_0::SimdShift                  0      0.00%     60.18%
system.cpu.iq.FU_type_0::SimdShiftAcc               0      0.00%     60.18%
system.cpu.iq.FU_type_0::SimdSqrt                   0      0.00%     60.18%
system.cpu.iq.FU_type_0::SimdFloatAdd               0      0.00%     60.18%
system.cpu.iq.FU_type_0::SimdFloatAlu               0      0.00%     60.18%
system.cpu.iq.FU_type_0::SimdFloatCmp               0      0.00%     60.18%
system.cpu.iq.FU_type_0::SimdFloatCvt               0      0.00%     60.18%
system.cpu.iq.FU_type_0::SimdFloatDiv               0      0.00%     60.18%
system.cpu.iq.FU_type_0::SimdFloatMisc              0      0.00%     60.18%
system.cpu.iq.FU_type_0::SimdFloatMult              0      0.00%     60.18%
system.cpu.iq.FU_type_0::SimdFloatMultAcc            0      0.00%     60.18%
system.cpu.iq.FU_type_0::SimdFloatSqrt              0      0.00%     60.18%
system.cpu.iq.FU_type_0::MemRead               105081     24.88%     85.07%
system.cpu.iq.FU_type_0::MemWrite               62232     14.73%     99.81%
system.cpu.iq.FU_type_0::FloatMemRead             626      0.14%     99.95%
system.cpu.iq.FU_type_0::FloatMemWrite            176      0.04%     99.99%
system.cpu.iq.FU_type_0::IprAccess                  0      0.00%     99.99%
system.cpu.iq.FU_type_0::InstPrefetch               0      0.00%     99.99%
system.cpu.iq.FU_type_0::total                 422207                      
system.cpu.iq.rate                           0.750396                      
system.cpu.iq.fu_busy_cnt                        1935                      
system.cpu.iq.fu_busy_rate                   0.004583                      
system.cpu.iq.int_inst_queue_reads            1305261                      
system.cpu.iq.int_inst_queue_writes            460762                      
system.cpu.iq.int_inst_queue_wakeup_accesses       408734                      
system.cpu.iq.fp_inst_queue_reads                2517                      
system.cpu.iq.fp_inst_queue_writes               1399                      
system.cpu.iq.fp_inst_queue_wakeup_accesses         1192                      
system.cpu.iq.vec_inst_queue_reads                  0                      
system.cpu.iq.vec_inst_queue_writes                 0                      
system.cpu.iq.vec_inst_queue_wakeup_accesses            0                      
system.cpu.iq.int_alu_accesses                 422646                      
system.cpu.iq.fp_alu_accesses                    1260                      
system.cpu.iq.vec_alu_accesses                      0                      
system.cpu.iew.lsq.thread0.forwLoads             1423                      
system.cpu.iew.lsq.thread0.invAddrLoads             0                      
system.cpu.iew.lsq.thread0.squashedLoads         6824                      
system.cpu.iew.lsq.thread0.ignoredResponses           20                      
system.cpu.iew.lsq.thread0.memOrderViolation           17                      
system.cpu.iew.lsq.thread0.squashedStores         2769                      
system.cpu.iew.lsq.thread0.invAddrSwpfs             0                      
system.cpu.iew.lsq.thread0.blockedLoads             0                      
system.cpu.iew.lsq.thread0.rescheduledLoads            0                      
system.cpu.iew.lsq.thread0.cacheBlocked           141                      
system.cpu.iew.iewIdleCycles                        0                      
system.cpu.iew.iewSquashCycles                   8528                      
system.cpu.iew.iewBlockCycles                    2056                      
system.cpu.iew.iewUnblockCycles                   726                      
system.cpu.iew.iewDispatchedInsts              428372                      
system.cpu.iew.iewDispSquashedInsts              8484                      
system.cpu.iew.iewDispLoadInsts                106724                      
system.cpu.iew.iewDispStoreInsts                63369                      
system.cpu.iew.iewDispNonSpecInsts               3191                      
system.cpu.iew.iewIQFullEvents                      1                      
system.cpu.iew.iewLSQFullEvents                   727                      
system.cpu.iew.memOrderViolationEvents             17                      
system.cpu.iew.predictedTakenIncorrect           3148                      
system.cpu.iew.predictedNotTakenIncorrect         5923                      
system.cpu.iew.branchMispredicts                 9071                      
system.cpu.iew.iewExecutedInsts                412292                      
system.cpu.iew.iewExecLoadInsts                103875                      
system.cpu.iew.iewExecSquashedInsts              9915                      
system.cpu.iew.exec_swp                             0                      
system.cpu.iew.exec_nop                             0                      
system.cpu.iew.exec_refs                       165952                      
system.cpu.iew.exec_branches                    90296                      
system.cpu.iew.exec_stores                      62077                      
system.cpu.iew.exec_rate                     0.732774                      
system.cpu.iew.wb_sent                         410322                      
system.cpu.iew.wb_count                        409926                      
system.cpu.iew.wb_producers                    134548                      
system.cpu.iew.wb_consumers                    160367                      
system.cpu.iew.wb_rate                       0.728569                      
system.cpu.iew.wb_fanout                     0.839000                      
system.cpu.commit.commitSquashedInsts           33786                      
system.cpu.commit.commitNonSpecStalls            3084                      
system.cpu.commit.branchMispredicts              8296                      
system.cpu.commit.committed_per_cycle::samples       451300                      
system.cpu.commit.committed_per_cycle::mean     0.874360                      
system.cpu.commit.committed_per_cycle::stdev     1.362850                      
system.cpu.commit.committed_per_cycle::underflows            0      0.00%      0.00%
system.cpu.commit.committed_per_cycle::0       238154     52.77%     52.77%
system.cpu.commit.committed_per_cycle::1       129992     28.80%     81.57%
system.cpu.commit.committed_per_cycle::2        34818      7.71%     89.28%
system.cpu.commit.committed_per_cycle::3        28476      6.30%     95.59%
system.cpu.commit.committed_per_cycle::4         8741      1.93%     97.53%
system.cpu.commit.committed_per_cycle::5         2910      0.64%     98.18%
system.cpu.commit.committed_per_cycle::6         2181      0.48%     98.66%
system.cpu.commit.committed_per_cycle::7         1281      0.28%     98.94%
system.cpu.commit.committed_per_cycle::8         4747      1.05%     99.99%
system.cpu.commit.committed_per_cycle::overflows            0      0.00%     99.99%
system.cpu.commit.committed_per_cycle::min_value            0                      
system.cpu.commit.committed_per_cycle::max_value            8                      
system.cpu.commit.committed_per_cycle::total       451300                      
system.cpu.commit.committedInsts               393394                      
system.cpu.commit.committedOps                 394599                      
system.cpu.commit.swp_count                         0                      
system.cpu.commit.refs                         160500                      
system.cpu.commit.loads                         99900                      
system.cpu.commit.membars                           4                      
system.cpu.commit.branches                      86011                      
system.cpu.commit.vec_insts                         0                      
system.cpu.commit.fp_insts                       1163                      
system.cpu.commit.int_insts                    392588                      
system.cpu.commit.function_calls                22164                      
system.cpu.commit.op_class_0::No_OpClass           20      0.00%      0.00%
system.cpu.commit.op_class_0::IntAlu           233005     59.04%     59.05%
system.cpu.commit.op_class_0::IntMult             626      0.15%     59.21%
system.cpu.commit.op_class_0::IntDiv                4      0.00%     59.21%
system.cpu.commit.op_class_0::FloatAdd             11      0.00%     59.21%
system.cpu.commit.op_class_0::FloatCmp            161      0.04%     59.25%
system.cpu.commit.op_class_0::FloatCvt            109      0.02%     59.28%
system.cpu.commit.op_class_0::FloatMult             8      0.00%     59.28%
system.cpu.commit.op_class_0::FloatMultAcc           22      0.00%     59.29%
system.cpu.commit.op_class_0::FloatDiv             11      0.00%     59.29%
system.cpu.commit.op_class_0::FloatMisc           117      0.02%     59.32%
system.cpu.commit.op_class_0::FloatSqrt             5      0.00%     59.32%
system.cpu.commit.op_class_0::SimdAdd               0      0.00%     59.32%
system.cpu.commit.op_class_0::SimdAddAcc            0      0.00%     59.32%
system.cpu.commit.op_class_0::SimdAlu               0      0.00%     59.32%
system.cpu.commit.op_class_0::SimdCmp               0      0.00%     59.32%
system.cpu.commit.op_class_0::SimdCvt               0      0.00%     59.32%
system.cpu.commit.op_class_0::SimdMisc              0      0.00%     59.32%
system.cpu.commit.op_class_0::SimdMult              0      0.00%     59.32%
system.cpu.commit.op_class_0::SimdMultAcc            0      0.00%     59.32%
system.cpu.commit.op_class_0::SimdShift             0      0.00%     59.32%
system.cpu.commit.op_class_0::SimdShiftAcc            0      0.00%     59.32%
system.cpu.commit.op_class_0::SimdSqrt              0      0.00%     59.32%
system.cpu.commit.op_class_0::SimdFloatAdd            0      0.00%     59.32%
system.cpu.commit.op_class_0::SimdFloatAlu            0      0.00%     59.32%
system.cpu.commit.op_class_0::SimdFloatCmp            0      0.00%     59.32%
system.cpu.commit.op_class_0::SimdFloatCvt            0      0.00%     59.32%
system.cpu.commit.op_class_0::SimdFloatDiv            0      0.00%     59.32%
system.cpu.commit.op_class_0::SimdFloatMisc            0      0.00%     59.32%
system.cpu.commit.op_class_0::SimdFloatMult            0      0.00%     59.32%
system.cpu.commit.op_class_0::SimdFloatMultAcc            0      0.00%     59.32%
system.cpu.commit.op_class_0::SimdFloatSqrt            0      0.00%     59.32%
system.cpu.commit.op_class_0::MemRead           99353     25.17%     84.50%
system.cpu.commit.op_class_0::MemWrite          60428     15.31%     99.81%
system.cpu.commit.op_class_0::FloatMemRead          547      0.13%     99.95%
system.cpu.commit.op_class_0::FloatMemWrite          172      0.04%     99.99%
system.cpu.commit.op_class_0::IprAccess             0      0.00%     99.99%
system.cpu.commit.op_class_0::InstPrefetch            0      0.00%     99.99%
system.cpu.commit.op_class_0::total            394599                      
system.cpu.commit.bw_lim_events                  4747                      
system.cpu.rob.rob_reads                       872143                      
system.cpu.rob.rob_writes                      866796                      
system.cpu.timesIdled                             775                      
system.cpu.idleCycles                          101348                      
system.cpu.committedInsts                      393394                      
system.cpu.committedOps                        394599                      
system.cpu.cpi                               1.430232                      
system.cpu.cpi_total                         1.430232                      
system.cpu.ipc                               0.699186                      
system.cpu.ipc_total                         0.699186                      
system.cpu.int_regfile_reads                   514636                      
system.cpu.int_regfile_writes                  271342                      
system.cpu.fp_regfile_reads                       961                      
system.cpu.fp_regfile_writes                      778                      
system.cpu.misc_regfile_reads                     586                      
system.cpu.misc_regfile_writes                    454                      
system.cpu.dcache.tags.pwrStateResidencyTicks::UNDEFINED    281322000                      
system.cpu.dcache.tags.replacements                 2                      
system.cpu.dcache.tags.tagsinuse           420.849455                      
system.cpu.dcache.tags.total_refs              160889                      
system.cpu.dcache.tags.sampled_refs               533                      
system.cpu.dcache.tags.avg_refs            301.855534                      
system.cpu.dcache.tags.warmup_cycle            197500                      
system.cpu.dcache.tags.occ_blocks::cpu.data   420.849455                      
system.cpu.dcache.tags.occ_percent::cpu.data     0.102746                      
system.cpu.dcache.tags.occ_percent::total     0.102746                      
system.cpu.dcache.tags.occ_task_id_blocks::1024          531                      
system.cpu.dcache.tags.age_task_id_blocks_1024::0           17                      
system.cpu.dcache.tags.age_task_id_blocks_1024::1           34                      
system.cpu.dcache.tags.age_task_id_blocks_1024::2          480                      
system.cpu.dcache.tags.occ_task_id_percent::1024     0.129638                      
system.cpu.dcache.tags.tag_accesses            326165                      
system.cpu.dcache.tags.data_accesses           326165                      
system.cpu.dcache.pwrStateResidencyTicks::UNDEFINED    281322000                      
system.cpu.dcache.ReadReq_hits::cpu.data        99808                      
system.cpu.dcache.ReadReq_hits::total           99808                      
system.cpu.dcache.WriteReq_hits::cpu.data        57739                      
system.cpu.dcache.WriteReq_hits::total          57739                      
system.cpu.dcache.LoadLockedReq_hits::cpu.data         1699                      
system.cpu.dcache.LoadLockedReq_hits::total         1699                      
system.cpu.dcache.StoreCondReq_hits::cpu.data         1643                      
system.cpu.dcache.StoreCondReq_hits::total         1643                      
system.cpu.dcache.demand_hits::cpu.data        157547                      
system.cpu.dcache.demand_hits::total           157547                      
system.cpu.dcache.overall_hits::cpu.data       157547                      
system.cpu.dcache.overall_hits::total          157547                      
system.cpu.dcache.ReadReq_misses::cpu.data          705                      
system.cpu.dcache.ReadReq_misses::total           705                      
system.cpu.dcache.WriteReq_misses::cpu.data         1218                      
system.cpu.dcache.WriteReq_misses::total         1218                      
system.cpu.dcache.LoadLockedReq_misses::cpu.data            4                      
system.cpu.dcache.LoadLockedReq_misses::total            4                      
system.cpu.dcache.demand_misses::cpu.data         1923                      
system.cpu.dcache.demand_misses::total           1923                      
system.cpu.dcache.overall_misses::cpu.data         1923                      
system.cpu.dcache.overall_misses::total          1923                      
system.cpu.dcache.ReadReq_miss_latency::cpu.data     59843500                      
system.cpu.dcache.ReadReq_miss_latency::total     59843500                      
system.cpu.dcache.WriteReq_miss_latency::cpu.data     80332463                      
system.cpu.dcache.WriteReq_miss_latency::total     80332463                      
system.cpu.dcache.LoadLockedReq_miss_latency::cpu.data       341500                      
system.cpu.dcache.LoadLockedReq_miss_latency::total       341500                      
system.cpu.dcache.demand_miss_latency::cpu.data    140175963                      
system.cpu.dcache.demand_miss_latency::total    140175963                      
system.cpu.dcache.overall_miss_latency::cpu.data    140175963                      
system.cpu.dcache.overall_miss_latency::total    140175963                      
system.cpu.dcache.ReadReq_accesses::cpu.data       100513                      
system.cpu.dcache.ReadReq_accesses::total       100513                      
system.cpu.dcache.WriteReq_accesses::cpu.data        58957                      
system.cpu.dcache.WriteReq_accesses::total        58957                      
system.cpu.dcache.LoadLockedReq_accesses::cpu.data         1703                      
system.cpu.dcache.LoadLockedReq_accesses::total         1703                      
system.cpu.dcache.StoreCondReq_accesses::cpu.data         1643                      
system.cpu.dcache.StoreCondReq_accesses::total         1643                      
system.cpu.dcache.demand_accesses::cpu.data       159470                      
system.cpu.dcache.demand_accesses::total       159470                      
system.cpu.dcache.overall_accesses::cpu.data       159470                      
system.cpu.dcache.overall_accesses::total       159470                      
system.cpu.dcache.ReadReq_miss_rate::cpu.data     0.007014                      
system.cpu.dcache.ReadReq_miss_rate::total     0.007014                      
system.cpu.dcache.WriteReq_miss_rate::cpu.data     0.020659                      
system.cpu.dcache.WriteReq_miss_rate::total     0.020659                      
system.cpu.dcache.LoadLockedReq_miss_rate::cpu.data     0.002348                      
system.cpu.dcache.LoadLockedReq_miss_rate::total     0.002348                      
system.cpu.dcache.demand_miss_rate::cpu.data     0.012058                      
system.cpu.dcache.demand_miss_rate::total     0.012058                      
system.cpu.dcache.overall_miss_rate::cpu.data     0.012058                      
system.cpu.dcache.overall_miss_rate::total     0.012058                      
system.cpu.dcache.ReadReq_avg_miss_latency::cpu.data 84884.397163                      
system.cpu.dcache.ReadReq_avg_miss_latency::total 84884.397163                      
system.cpu.dcache.WriteReq_avg_miss_latency::cpu.data 65954.403119                      
system.cpu.dcache.WriteReq_avg_miss_latency::total 65954.403119                      
system.cpu.dcache.LoadLockedReq_avg_miss_latency::cpu.data        85375                      
system.cpu.dcache.LoadLockedReq_avg_miss_latency::total        85375                      
system.cpu.dcache.demand_avg_miss_latency::cpu.data 72894.416536                      
system.cpu.dcache.demand_avg_miss_latency::total 72894.416536                      
system.cpu.dcache.overall_avg_miss_latency::cpu.data 72894.416536                      
system.cpu.dcache.overall_avg_miss_latency::total 72894.416536                      
system.cpu.dcache.blocked_cycles::no_mshrs         2921                      
system.cpu.dcache.blocked_cycles::no_targets          523                      
system.cpu.dcache.blocked::no_mshrs                52                      
system.cpu.dcache.blocked::no_targets               2                      
system.cpu.dcache.avg_blocked_cycles::no_mshrs    56.173076                      
system.cpu.dcache.avg_blocked_cycles::no_targets   261.500000                      
system.cpu.dcache.writebacks::writebacks            2                      
system.cpu.dcache.writebacks::total                 2                      
system.cpu.dcache.ReadReq_mshr_hits::cpu.data          396                      
system.cpu.dcache.ReadReq_mshr_hits::total          396                      
system.cpu.dcache.WriteReq_mshr_hits::cpu.data          996                      
system.cpu.dcache.WriteReq_mshr_hits::total          996                      
system.cpu.dcache.LoadLockedReq_mshr_hits::cpu.data            2                      
system.cpu.dcache.LoadLockedReq_mshr_hits::total            2                      
system.cpu.dcache.demand_mshr_hits::cpu.data         1392                      
system.cpu.dcache.demand_mshr_hits::total         1392                      
system.cpu.dcache.overall_mshr_hits::cpu.data         1392                      
system.cpu.dcache.overall_mshr_hits::total         1392                      
system.cpu.dcache.ReadReq_mshr_misses::cpu.data          309                      
system.cpu.dcache.ReadReq_mshr_misses::total          309                      
system.cpu.dcache.WriteReq_mshr_misses::cpu.data          222                      
system.cpu.dcache.WriteReq_mshr_misses::total          222                      
system.cpu.dcache.LoadLockedReq_mshr_misses::cpu.data            2                      
system.cpu.dcache.LoadLockedReq_mshr_misses::total            2                      
system.cpu.dcache.demand_mshr_misses::cpu.data          531                      
system.cpu.dcache.demand_mshr_misses::total          531                      
system.cpu.dcache.overall_mshr_misses::cpu.data          531                      
system.cpu.dcache.overall_mshr_misses::total          531                      
system.cpu.dcache.ReadReq_mshr_miss_latency::cpu.data     27448000                      
system.cpu.dcache.ReadReq_mshr_miss_latency::total     27448000                      
system.cpu.dcache.WriteReq_mshr_miss_latency::cpu.data     18568996                      
system.cpu.dcache.WriteReq_mshr_miss_latency::total     18568996                      
system.cpu.dcache.LoadLockedReq_mshr_miss_latency::cpu.data       183000                      
system.cpu.dcache.LoadLockedReq_mshr_miss_latency::total       183000                      
system.cpu.dcache.demand_mshr_miss_latency::cpu.data     46016996                      
system.cpu.dcache.demand_mshr_miss_latency::total     46016996                      
system.cpu.dcache.overall_mshr_miss_latency::cpu.data     46016996                      
system.cpu.dcache.overall_mshr_miss_latency::total     46016996                      
system.cpu.dcache.ReadReq_mshr_miss_rate::cpu.data     0.003074                      
system.cpu.dcache.ReadReq_mshr_miss_rate::total     0.003074                      
system.cpu.dcache.WriteReq_mshr_miss_rate::cpu.data     0.003765                      
system.cpu.dcache.WriteReq_mshr_miss_rate::total     0.003765                      
system.cpu.dcache.LoadLockedReq_mshr_miss_rate::cpu.data     0.001174                      
system.cpu.dcache.LoadLockedReq_mshr_miss_rate::total     0.001174                      
system.cpu.dcache.demand_mshr_miss_rate::cpu.data     0.003329                      
system.cpu.dcache.demand_mshr_miss_rate::total     0.003329                      
system.cpu.dcache.overall_mshr_miss_rate::cpu.data     0.003329                      
system.cpu.dcache.overall_mshr_miss_rate::total     0.003329                      
system.cpu.dcache.ReadReq_avg_mshr_miss_latency::cpu.data 88828.478964                      
system.cpu.dcache.ReadReq_avg_mshr_miss_latency::total 88828.478964                      
system.cpu.dcache.WriteReq_avg_mshr_miss_latency::cpu.data 83644.126126                      
system.cpu.dcache.WriteReq_avg_mshr_miss_latency::total 83644.126126                      
system.cpu.dcache.LoadLockedReq_avg_mshr_miss_latency::cpu.data        91500                      
system.cpu.dcache.LoadLockedReq_avg_mshr_miss_latency::total        91500                      
system.cpu.dcache.demand_avg_mshr_miss_latency::cpu.data 86661.009416                      
system.cpu.dcache.demand_avg_mshr_miss_latency::total 86661.009416                      
system.cpu.dcache.overall_avg_mshr_miss_latency::cpu.data 86661.009416                      
system.cpu.dcache.overall_avg_mshr_miss_latency::total 86661.009416                      
system.cpu.icache.tags.pwrStateResidencyTicks::UNDEFINED    281322000                      
system.cpu.icache.tags.replacements                92                      
system.cpu.icache.tags.tagsinuse           734.023579                      
system.cpu.icache.tags.total_refs               66345                      
system.cpu.icache.tags.sampled_refs              1174                      
system.cpu.icache.tags.avg_refs             56.511925                      
system.cpu.icache.tags.warmup_cycle             87500                      
system.cpu.icache.tags.occ_blocks::cpu.inst   734.023579                      
system.cpu.icache.tags.occ_percent::cpu.inst     0.358409                      
system.cpu.icache.tags.occ_percent::total     0.358409                      
system.cpu.icache.tags.occ_task_id_blocks::1024         1082                      
system.cpu.icache.tags.age_task_id_blocks_1024::0           52                      
system.cpu.icache.tags.age_task_id_blocks_1024::1          175                      
system.cpu.icache.tags.age_task_id_blocks_1024::2          855                      
system.cpu.icache.tags.occ_task_id_percent::1024     0.528320                      
system.cpu.icache.tags.tag_accesses            136924                      
system.cpu.icache.tags.data_accesses           136924                      
system.cpu.icache.pwrStateResidencyTicks::UNDEFINED    281322000                      
system.cpu.icache.ReadReq_hits::cpu.inst        66345                      
system.cpu.icache.ReadReq_hits::total           66345                      
system.cpu.icache.demand_hits::cpu.inst         66345                      
system.cpu.icache.demand_hits::total            66345                      
system.cpu.icache.overall_hits::cpu.inst        66345                      
system.cpu.icache.overall_hits::total           66345                      
system.cpu.icache.ReadReq_misses::cpu.inst         1530                      
system.cpu.icache.ReadReq_misses::total          1530                      
system.cpu.icache.demand_misses::cpu.inst         1530                      
system.cpu.icache.demand_misses::total           1530                      
system.cpu.icache.overall_misses::cpu.inst         1530                      
system.cpu.icache.overall_misses::total          1530                      
system.cpu.icache.ReadReq_miss_latency::cpu.inst    126960499                      
system.cpu.icache.ReadReq_miss_latency::total    126960499                      
system.cpu.icache.demand_miss_latency::cpu.inst    126960499                      
system.cpu.icache.demand_miss_latency::total    126960499                      
system.cpu.icache.overall_miss_latency::cpu.inst    126960499                      
system.cpu.icache.overall_miss_latency::total    126960499                      
system.cpu.icache.ReadReq_accesses::cpu.inst        67875                      
system.cpu.icache.ReadReq_accesses::total        67875                      
system.cpu.icache.demand_accesses::cpu.inst        67875                      
system.cpu.icache.demand_accesses::total        67875                      
system.cpu.icache.overall_accesses::cpu.inst        67875                      
system.cpu.icache.overall_accesses::total        67875                      
system.cpu.icache.ReadReq_miss_rate::cpu.inst     0.022541                      
system.cpu.icache.ReadReq_miss_rate::total     0.022541                      
system.cpu.icache.demand_miss_rate::cpu.inst     0.022541                      
system.cpu.icache.demand_miss_rate::total     0.022541                      
system.cpu.icache.overall_miss_rate::cpu.inst     0.022541                      
system.cpu.icache.overall_miss_rate::total     0.022541                      
system.cpu.icache.ReadReq_avg_miss_latency::cpu.inst 82980.718300                      
system.cpu.icache.ReadReq_avg_miss_latency::total 82980.718300                      
system.cpu.icache.demand_avg_miss_latency::cpu.inst 82980.718300                      
system.cpu.icache.demand_avg_miss_latency::total 82980.718300                      
system.cpu.icache.overall_avg_miss_latency::cpu.inst 82980.718300                      
system.cpu.icache.overall_avg_miss_latency::total 82980.718300                      
system.cpu.icache.blocked_cycles::no_mshrs          867                      
system.cpu.icache.blocked_cycles::no_targets            0                      
system.cpu.icache.blocked::no_mshrs                15                      
system.cpu.icache.blocked::no_targets               0                      
system.cpu.icache.avg_blocked_cycles::no_mshrs    57.799999                      
system.cpu.icache.avg_blocked_cycles::no_targets          nan                      
system.cpu.icache.writebacks::writebacks           92                      
system.cpu.icache.writebacks::total                92                      
system.cpu.icache.ReadReq_mshr_hits::cpu.inst          355                      
system.cpu.icache.ReadReq_mshr_hits::total          355                      
system.cpu.icache.demand_mshr_hits::cpu.inst          355                      
system.cpu.icache.demand_mshr_hits::total          355                      
system.cpu.icache.overall_mshr_hits::cpu.inst          355                      
system.cpu.icache.overall_mshr_hits::total          355                      
system.cpu.icache.ReadReq_mshr_misses::cpu.inst         1175                      
system.cpu.icache.ReadReq_mshr_misses::total         1175                      
system.cpu.icache.demand_mshr_misses::cpu.inst         1175                      
system.cpu.icache.demand_mshr_misses::total         1175                      
system.cpu.icache.overall_mshr_misses::cpu.inst         1175                      
system.cpu.icache.overall_mshr_misses::total         1175                      
system.cpu.icache.ReadReq_mshr_miss_latency::cpu.inst    100660999                      
system.cpu.icache.ReadReq_mshr_miss_latency::total    100660999                      
system.cpu.icache.demand_mshr_miss_latency::cpu.inst    100660999                      
system.cpu.icache.demand_mshr_miss_latency::total    100660999                      
system.cpu.icache.overall_mshr_miss_latency::cpu.inst    100660999                      
system.cpu.icache.overall_mshr_miss_latency::total    100660999                      
system.cpu.icache.ReadReq_mshr_miss_rate::cpu.inst     0.017311                      
system.cpu.icache.ReadReq_mshr_miss_rate::total     0.017311                      
system.cpu.icache.demand_mshr_miss_rate::cpu.inst     0.017311                      
system.cpu.icache.demand_mshr_miss_rate::total     0.017311                      
system.cpu.icache.overall_mshr_miss_rate::cpu.inst     0.017311                      
system.cpu.icache.overall_mshr_miss_rate::total     0.017311                      
system.cpu.icache.ReadReq_avg_mshr_miss_latency::cpu.inst 85668.935319                      
system.cpu.icache.ReadReq_avg_mshr_miss_latency::total 85668.935319                      
system.cpu.icache.demand_avg_mshr_miss_latency::cpu.inst 85668.935319                      
system.cpu.icache.demand_avg_mshr_miss_latency::total 85668.935319                      
system.cpu.icache.overall_avg_mshr_miss_latency::cpu.inst 85668.935319                      
system.cpu.icache.overall_avg_mshr_miss_latency::total 85668.935319                      
system.cpu.l2cache.tags.pwrStateResidencyTicks::UNDEFINED    281322000                      
system.cpu.l2cache.tags.replacements                0                      
system.cpu.l2cache.tags.tagsinuse         1192.607238                      
system.cpu.l2cache.tags.total_refs                104                      
system.cpu.l2cache.tags.sampled_refs             1696                      
system.cpu.l2cache.tags.avg_refs             0.061320                      
system.cpu.l2cache.tags.warmup_cycle            77000                      
system.cpu.l2cache.tags.occ_blocks::cpu.inst   772.125647                      
system.cpu.l2cache.tags.occ_blocks::cpu.data   420.481590                      
system.cpu.l2cache.tags.occ_percent::cpu.inst     0.023563                      
system.cpu.l2cache.tags.occ_percent::cpu.data     0.012832                      
system.cpu.l2cache.tags.occ_percent::total     0.036395                      
system.cpu.l2cache.tags.occ_task_id_blocks::1024         1696                      
system.cpu.l2cache.tags.age_task_id_blocks_1024::0           67                      
system.cpu.l2cache.tags.age_task_id_blocks_1024::1          210                      
system.cpu.l2cache.tags.age_task_id_blocks_1024::2         1419                      
system.cpu.l2cache.tags.occ_task_id_percent::1024     0.051757                      
system.cpu.l2cache.tags.tag_accesses            16104                      
system.cpu.l2cache.tags.data_accesses           16104                      
system.cpu.l2cache.pwrStateResidencyTicks::UNDEFINED    281322000                      
system.cpu.l2cache.WritebackDirty_hits::writebacks            2                      
system.cpu.l2cache.WritebackDirty_hits::total            2                      
system.cpu.l2cache.WritebackClean_hits::writebacks           91                      
system.cpu.l2cache.WritebackClean_hits::total           91                      
system.cpu.l2cache.ReadCleanReq_hits::cpu.inst           10                      
system.cpu.l2cache.ReadCleanReq_hits::total           10                      
system.cpu.l2cache.ReadSharedReq_hits::cpu.data            1                      
system.cpu.l2cache.ReadSharedReq_hits::total            1                      
system.cpu.l2cache.demand_hits::cpu.inst           10                      
system.cpu.l2cache.demand_hits::cpu.data            1                      
system.cpu.l2cache.demand_hits::total              11                      
system.cpu.l2cache.overall_hits::cpu.inst           10                      
system.cpu.l2cache.overall_hits::cpu.data            1                      
system.cpu.l2cache.overall_hits::total             11                      
system.cpu.l2cache.ReadExReq_misses::cpu.data          222                      
system.cpu.l2cache.ReadExReq_misses::total          222                      
system.cpu.l2cache.ReadCleanReq_misses::cpu.inst         1165                      
system.cpu.l2cache.ReadCleanReq_misses::total         1165                      
system.cpu.l2cache.ReadSharedReq_misses::cpu.data          310                      
system.cpu.l2cache.ReadSharedReq_misses::total          310                      
system.cpu.l2cache.demand_misses::cpu.inst         1165                      
system.cpu.l2cache.demand_misses::cpu.data          532                      
system.cpu.l2cache.demand_misses::total          1697                      
system.cpu.l2cache.overall_misses::cpu.inst         1165                      
system.cpu.l2cache.overall_misses::cpu.data          532                      
system.cpu.l2cache.overall_misses::total         1697                      
system.cpu.l2cache.ReadExReq_miss_latency::cpu.data     18229000                      
system.cpu.l2cache.ReadExReq_miss_latency::total     18229000                      
system.cpu.l2cache.ReadCleanReq_miss_latency::cpu.inst     98788000                      
system.cpu.l2cache.ReadCleanReq_miss_latency::total     98788000                      
system.cpu.l2cache.ReadSharedReq_miss_latency::cpu.data     27146500                      
system.cpu.l2cache.ReadSharedReq_miss_latency::total     27146500                      
system.cpu.l2cache.demand_miss_latency::cpu.inst     98788000                      
system.cpu.l2cache.demand_miss_latency::cpu.data     45375500                      
system.cpu.l2cache.demand_miss_latency::total    144163500                      
system.cpu.l2cache.overall_miss_latency::cpu.inst     98788000                      
system.cpu.l2cache.overall_miss_latency::cpu.data     45375500                      
system.cpu.l2cache.overall_miss_latency::total    144163500                      
system.cpu.l2cache.WritebackDirty_accesses::writebacks            2                      
system.cpu.l2cache.WritebackDirty_accesses::total            2                      
system.cpu.l2cache.WritebackClean_accesses::writebacks           91                      
system.cpu.l2cache.WritebackClean_accesses::total           91                      
system.cpu.l2cache.ReadExReq_accesses::cpu.data          222                      
system.cpu.l2cache.ReadExReq_accesses::total          222                      
system.cpu.l2cache.ReadCleanReq_accesses::cpu.inst         1175                      
system.cpu.l2cache.ReadCleanReq_accesses::total         1175                      
system.cpu.l2cache.ReadSharedReq_accesses::cpu.data          311                      
system.cpu.l2cache.ReadSharedReq_accesses::total          311                      
system.cpu.l2cache.demand_accesses::cpu.inst         1175                      
system.cpu.l2cache.demand_accesses::cpu.data          533                      
system.cpu.l2cache.demand_accesses::total         1708                      
system.cpu.l2cache.overall_accesses::cpu.inst         1175                      
system.cpu.l2cache.overall_accesses::cpu.data          533                      
system.cpu.l2cache.overall_accesses::total         1708                      
system.cpu.l2cache.ReadExReq_miss_rate::cpu.data            1                      
system.cpu.l2cache.ReadExReq_miss_rate::total            1                      
system.cpu.l2cache.ReadCleanReq_miss_rate::cpu.inst     0.991489                      
system.cpu.l2cache.ReadCleanReq_miss_rate::total     0.991489                      
system.cpu.l2cache.ReadSharedReq_miss_rate::cpu.data     0.996784                      
system.cpu.l2cache.ReadSharedReq_miss_rate::total     0.996784                      
system.cpu.l2cache.demand_miss_rate::cpu.inst     0.991489                      
system.cpu.l2cache.demand_miss_rate::cpu.data     0.998123                      
system.cpu.l2cache.demand_miss_rate::total     0.993559                      
system.cpu.l2cache.overall_miss_rate::cpu.inst     0.991489                      
system.cpu.l2cache.overall_miss_rate::cpu.data     0.998123                      
system.cpu.l2cache.overall_miss_rate::total     0.993559                      
system.cpu.l2cache.ReadExReq_avg_miss_latency::cpu.data 82112.612612                      
system.cpu.l2cache.ReadExReq_avg_miss_latency::total 82112.612612                      
system.cpu.l2cache.ReadCleanReq_avg_miss_latency::cpu.inst 84796.566523                      
system.cpu.l2cache.ReadCleanReq_avg_miss_latency::total 84796.566523                      
system.cpu.l2cache.ReadSharedReq_avg_miss_latency::cpu.data 87569.354838                      
system.cpu.l2cache.ReadSharedReq_avg_miss_latency::total 87569.354838                      
system.cpu.l2cache.demand_avg_miss_latency::cpu.inst 84796.566523                      
system.cpu.l2cache.demand_avg_miss_latency::cpu.data 85292.293233                      
system.cpu.l2cache.demand_avg_miss_latency::total 84951.974071                      
system.cpu.l2cache.overall_avg_miss_latency::cpu.inst 84796.566523                      
system.cpu.l2cache.overall_avg_miss_latency::cpu.data 85292.293233                      
system.cpu.l2cache.overall_avg_miss_latency::total 84951.974071                      
system.cpu.l2cache.blocked_cycles::no_mshrs            0                      
system.cpu.l2cache.blocked_cycles::no_targets            0                      
system.cpu.l2cache.blocked::no_mshrs                0                      
system.cpu.l2cache.blocked::no_targets              0                      
system.cpu.l2cache.avg_blocked_cycles::no_mshrs          nan                      
system.cpu.l2cache.avg_blocked_cycles::no_targets          nan                      
system.cpu.l2cache.ReadExReq_mshr_misses::cpu.data          222                      
system.cpu.l2cache.ReadExReq_mshr_misses::total          222                      
system.cpu.l2cache.ReadCleanReq_mshr_misses::cpu.inst         1165                      
system.cpu.l2cache.ReadCleanReq_mshr_misses::total         1165                      
system.cpu.l2cache.ReadSharedReq_mshr_misses::cpu.data          310                      
system.cpu.l2cache.ReadSharedReq_mshr_misses::total          310                      
system.cpu.l2cache.demand_mshr_misses::cpu.inst         1165                      
system.cpu.l2cache.demand_mshr_misses::cpu.data          532                      
system.cpu.l2cache.demand_mshr_misses::total         1697                      
system.cpu.l2cache.overall_mshr_misses::cpu.inst         1165                      
system.cpu.l2cache.overall_mshr_misses::cpu.data          532                      
system.cpu.l2cache.overall_mshr_misses::total         1697                      
system.cpu.l2cache.ReadExReq_mshr_miss_latency::cpu.data     16009000                      
system.cpu.l2cache.ReadExReq_mshr_miss_latency::total     16009000                      
system.cpu.l2cache.ReadCleanReq_mshr_miss_latency::cpu.inst     87148000                      
system.cpu.l2cache.ReadCleanReq_mshr_miss_latency::total     87148000                      
system.cpu.l2cache.ReadSharedReq_mshr_miss_latency::cpu.data     24046500                      
system.cpu.l2cache.ReadSharedReq_mshr_miss_latency::total     24046500                      
system.cpu.l2cache.demand_mshr_miss_latency::cpu.inst     87148000                      
system.cpu.l2cache.demand_mshr_miss_latency::cpu.data     40055500                      
system.cpu.l2cache.demand_mshr_miss_latency::total    127203500                      
system.cpu.l2cache.overall_mshr_miss_latency::cpu.inst     87148000                      
system.cpu.l2cache.overall_mshr_miss_latency::cpu.data     40055500                      
system.cpu.l2cache.overall_mshr_miss_latency::total    127203500                      
system.cpu.l2cache.ReadExReq_mshr_miss_rate::cpu.data            1                      
system.cpu.l2cache.ReadExReq_mshr_miss_rate::total            1                      
system.cpu.l2cache.ReadCleanReq_mshr_miss_rate::cpu.inst     0.991489                      
system.cpu.l2cache.ReadCleanReq_mshr_miss_rate::total     0.991489                      
system.cpu.l2cache.ReadSharedReq_mshr_miss_rate::cpu.data     0.996784                      
system.cpu.l2cache.ReadSharedReq_mshr_miss_rate::total     0.996784                      
system.cpu.l2cache.demand_mshr_miss_rate::cpu.inst     0.991489                      
system.cpu.l2cache.demand_mshr_miss_rate::cpu.data     0.998123                      
system.cpu.l2cache.demand_mshr_miss_rate::total     0.993559                      
system.cpu.l2cache.overall_mshr_miss_rate::cpu.inst     0.991489                      
system.cpu.l2cache.overall_mshr_miss_rate::cpu.data     0.998123                      
system.cpu.l2cache.overall_mshr_miss_rate::total     0.993559                      
system.cpu.l2cache.ReadExReq_avg_mshr_miss_latency::cpu.data 72112.612612                      
system.cpu.l2cache.ReadExReq_avg_mshr_miss_latency::total 72112.612612                      
system.cpu.l2cache.ReadCleanReq_avg_mshr_miss_latency::cpu.inst 74805.150214                      
system.cpu.l2cache.ReadCleanReq_avg_mshr_miss_latency::total 74805.150214                      
system.cpu.l2cache.ReadSharedReq_avg_mshr_miss_latency::cpu.data 77569.354838                      
system.cpu.l2cache.ReadSharedReq_avg_mshr_miss_latency::total 77569.354838                      
system.cpu.l2cache.demand_avg_mshr_miss_latency::cpu.inst 74805.150214                      
system.cpu.l2cache.demand_avg_mshr_miss_latency::cpu.data 75292.293233                      
system.cpu.l2cache.demand_avg_mshr_miss_latency::total 74957.866823                      
system.cpu.l2cache.overall_avg_mshr_miss_latency::cpu.inst 74805.150214                      
system.cpu.l2cache.overall_avg_mshr_miss_latency::cpu.data 75292.293233                      
system.cpu.l2cache.overall_avg_mshr_miss_latency::total 74957.866823                      
system.cpu.toL2Bus.snoop_filter.tot_requests         1802                      
system.cpu.toL2Bus.snoop_filter.hit_single_requests           94                      
system.cpu.toL2Bus.snoop_filter.hit_multi_requests            1                      
system.cpu.toL2Bus.snoop_filter.tot_snoops            0                      
system.cpu.toL2Bus.snoop_filter.hit_single_snoops            0                      
system.cpu.toL2Bus.snoop_filter.hit_multi_snoops            0                      
system.cpu.toL2Bus.pwrStateResidencyTicks::UNDEFINED    281322000                      
system.cpu.toL2Bus.trans_dist::ReadResp          1485                      
system.cpu.toL2Bus.trans_dist::WritebackDirty            2                      
system.cpu.toL2Bus.trans_dist::WritebackClean           92                      
system.cpu.toL2Bus.trans_dist::ReadExReq          222                      
system.cpu.toL2Bus.trans_dist::ReadExResp          222                      
system.cpu.toL2Bus.trans_dist::ReadCleanReq         1175                      
system.cpu.toL2Bus.trans_dist::ReadSharedReq          311                      
system.cpu.toL2Bus.pkt_count_system.cpu.icache.mem_side::system.cpu.l2cache.cpu_side         2441                      
system.cpu.toL2Bus.pkt_count_system.cpu.dcache.mem_side::system.cpu.l2cache.cpu_side         1068                      
system.cpu.toL2Bus.pkt_count::total              3509                      
system.cpu.toL2Bus.pkt_size_system.cpu.icache.mem_side::system.cpu.l2cache.cpu_side        81024                      
system.cpu.toL2Bus.pkt_size_system.cpu.dcache.mem_side::system.cpu.l2cache.cpu_side        34240                      
system.cpu.toL2Bus.pkt_size::total             115264                      
system.cpu.toL2Bus.snoops                           0                      
system.cpu.toL2Bus.snoopTraffic                     0                      
system.cpu.toL2Bus.snoop_fanout::samples         1708                      
system.cpu.toL2Bus.snoop_fanout::mean        0.000585                      
system.cpu.toL2Bus.snoop_fanout::stdev       0.024196                      
system.cpu.toL2Bus.snoop_fanout::underflows            0      0.00%      0.00%
system.cpu.toL2Bus.snoop_fanout::0               1707     99.94%     99.94%
system.cpu.toL2Bus.snoop_fanout::1                  1      0.05%     99.99%
system.cpu.toL2Bus.snoop_fanout::2                  0      0.00%     99.99%
system.cpu.toL2Bus.snoop_fanout::overflows            0      0.00%     99.99%
system.cpu.toL2Bus.snoop_fanout::min_value            0                      
system.cpu.toL2Bus.snoop_fanout::max_value            1                      
system.cpu.toL2Bus.snoop_fanout::total           1708                      
system.cpu.toL2Bus.reqLayer0.occupancy         995000                      
system.cpu.toL2Bus.reqLayer0.utilization          0.3                      
system.cpu.toL2Bus.respLayer0.occupancy       1761000                      
system.cpu.toL2Bus.respLayer0.utilization          0.6                      
system.cpu.toL2Bus.respLayer1.occupancy        799500                      
system.cpu.toL2Bus.respLayer1.utilization          0.2                      
system.membus.snoop_filter.tot_requests          1697                      
system.membus.snoop_filter.hit_single_requests            0                      
system.membus.snoop_filter.hit_multi_requests            0                      
system.membus.snoop_filter.tot_snoops               0                      
system.membus.snoop_filter.hit_single_snoops            0                      
system.membus.snoop_filter.hit_multi_snoops            0                      
system.membus.pwrStateResidencyTicks::UNDEFINED    281322000                      
system.membus.trans_dist::ReadResp               1474                      
system.membus.trans_dist::ReadExReq               222                      
system.membus.trans_dist::ReadExResp              222                      
system.membus.trans_dist::ReadSharedReq          1475                      
system.membus.pkt_count_system.cpu.l2cache.mem_side::system.physmem.port         3393                      
system.membus.pkt_count::total                   3393                      
system.membus.pkt_size_system.cpu.l2cache.mem_side::system.physmem.port       108544                      
system.membus.pkt_size::total                  108544                      
system.membus.snoops                                0                      
system.membus.snoopTraffic                          0                      
system.membus.snoop_fanout::samples              1697                      
system.membus.snoop_fanout::mean                    0                      
system.membus.snoop_fanout::stdev                  -0                      
system.membus.snoop_fanout::underflows              0      0.00%      0.00%
system.membus.snoop_fanout::0                    1697    100.00%    100.00%
system.membus.snoop_fanout::1                       0      0.00%    100.00%
system.membus.snoop_fanout::overflows               0      0.00%    100.00%
system.membus.snoop_fanout::min_value               0                      
system.membus.snoop_fanout::max_value               0                      
system.membus.snoop_fanout::total                1697                      
system.membus.reqLayer0.occupancy             2099500                      
system.membus.reqLayer0.utilization               0.7                      
system.membus.respLayer1.occupancy            8984250                      
system.membus.respLayer1.utilization              3.1                      

---------- End Simulation Statistics   ----------
