
---------- Begin Simulation Statistics ----------
sim_seconds                                  0.000397                      
sim_ticks                                   397336500                      
final_tick                                  397336500                      
sim_freq                                 1000000000000                      
host_inst_rate                                 137579                      
host_op_rate                                   137999                      
host_tick_rate                              136439986                      
host_mem_usage                                 402320                      
host_seconds                                     2.91                      
sim_insts                                      400645                      
sim_ops                                        401876                      
system.voltage_domain.voltage                       1                      
system.clk_domain.clock                          1000                      
system.physmem.pwrStateResidencyTicks::UNDEFINED    397336500                      
system.physmem.bytes_read::cpu.inst             82752                      
system.physmem.bytes_read::cpu.data             34112                      
system.physmem.bytes_read::total               116864                      
system.physmem.bytes_inst_read::cpu.inst        82752                      
system.physmem.bytes_inst_read::total           82752                      
system.physmem.num_reads::cpu.inst               1293                      
system.physmem.num_reads::cpu.data                533                      
system.physmem.num_reads::total                  1826                      
system.physmem.bw_read::cpu.inst            208266796                      
system.physmem.bw_read::cpu.data             85851664                      
system.physmem.bw_read::total               294118461                      
system.physmem.bw_inst_read::cpu.inst       208266796                      
system.physmem.bw_inst_read::total          208266796                      
system.physmem.bw_total::cpu.inst           208266796                      
system.physmem.bw_total::cpu.data            85851664                      
system.physmem.bw_total::total              294118461                      
system.physmem.readReqs                          1826                      
system.physmem.writeReqs                            0                      
system.physmem.readBursts                        1826                      
system.physmem.writeBursts                          0                      
system.physmem.bytesReadDRAM                   116864                      
system.physmem.bytesReadWrQ                         0                      
system.physmem.bytesWritten                         0                      
system.physmem.bytesReadSys                    116864                      
system.physmem.bytesWrittenSys                      0                      
system.physmem.servicedByWrQ                        0                      
system.physmem.mergedWrBursts                       0                      
system.physmem.neitherReadNorWriteReqs              0                      
system.physmem.perBankRdBursts::0                 241                      
system.physmem.perBankRdBursts::1                 274                      
system.physmem.perBankRdBursts::2                 180                      
system.physmem.perBankRdBursts::3                 184                      
system.physmem.perBankRdBursts::4                 156                      
system.physmem.perBankRdBursts::5                 100                      
system.physmem.perBankRdBursts::6                 126                      
system.physmem.perBankRdBursts::7                  53                      
system.physmem.perBankRdBursts::8                  51                      
system.physmem.perBankRdBursts::9                  72                      
system.physmem.perBankRdBursts::10                 18                      
system.physmem.perBankRdBursts::11                 38                      
system.physmem.perBankRdBursts::12                 89                      
system.physmem.perBankRdBursts::13                 78                      
system.physmem.perBankRdBursts::14                 73                      
system.physmem.perBankRdBursts::15                 93                      
system.physmem.perBankWrBursts::0                   0                      
system.physmem.perBankWrBursts::1                   0                      
system.physmem.perBankWrBursts::2                   0                      
system.physmem.perBankWrBursts::3                   0                      
system.physmem.perBankWrBursts::4                   0                      
system.physmem.perBankWrBursts::5                   0                      
system.physmem.perBankWrBursts::6                   0                      
system.physmem.perBankWrBursts::7                   0                      
system.physmem.perBankWrBursts::8                   0                      
system.physmem.perBankWrBursts::9                   0                      
system.physmem.perBankWrBursts::10                  0                      
system.physmem.perBankWrBursts::11                  0                      
system.physmem.perBankWrBursts::12                  0                      
system.physmem.perBankWrBursts::13                  0                      
system.physmem.perBankWrBursts::14                  0                      
system.physmem.perBankWrBursts::15                  0                      
system.physmem.numRdRetry                           0                      
system.physmem.numWrRetry                           0                      
system.physmem.totGap                       397240000                      
system.physmem.readPktSize::0                       0                      
system.physmem.readPktSize::1                       0                      
system.physmem.readPktSize::2                       0                      
system.physmem.readPktSize::3                       0                      
system.physmem.readPktSize::4                       0                      
system.physmem.readPktSize::5                       0                      
system.physmem.readPktSize::6                    1826                      
system.physmem.writePktSize::0                      0                      
system.physmem.writePktSize::1                      0                      
system.physmem.writePktSize::2                      0                      
system.physmem.writePktSize::3                      0                      
system.physmem.writePktSize::4                      0                      
system.physmem.writePktSize::5                      0                      
system.physmem.writePktSize::6                      0                      
system.physmem.rdQLenPdf::0                      1599                      
system.physmem.rdQLenPdf::1                       213                      
system.physmem.rdQLenPdf::2                        14                      
system.physmem.rdQLenPdf::3                         0                      
system.physmem.rdQLenPdf::4                         0                      
system.physmem.rdQLenPdf::5                         0                      
system.physmem.rdQLenPdf::6                         0                      
system.physmem.rdQLenPdf::7                         0                      
system.physmem.rdQLenPdf::8                         0                      
system.physmem.rdQLenPdf::9                         0                      
system.physmem.rdQLenPdf::10                        0                      
system.physmem.rdQLenPdf::11                        0                      
system.physmem.rdQLenPdf::12                        0                      
system.physmem.rdQLenPdf::13                        0                      
system.physmem.rdQLenPdf::14                        0                      
system.physmem.rdQLenPdf::15                        0                      
system.physmem.rdQLenPdf::16                        0                      
system.physmem.rdQLenPdf::17                        0                      
system.physmem.rdQLenPdf::18                        0                      
system.physmem.rdQLenPdf::19                        0                      
system.physmem.rdQLenPdf::20                        0                      
system.physmem.rdQLenPdf::21                        0                      
system.physmem.rdQLenPdf::22                        0                      
system.physmem.rdQLenPdf::23                        0                      
system.physmem.rdQLenPdf::24                        0                      
system.physmem.rdQLenPdf::25                        0                      
system.physmem.rdQLenPdf::26                        0                      
system.physmem.rdQLenPdf::27                        0                      
system.physmem.rdQLenPdf::28                        0                      
system.physmem.rdQLenPdf::29                        0                      
system.physmem.rdQLenPdf::30                        0                      
system.physmem.rdQLenPdf::31                        0                      
system.physmem.wrQLenPdf::0                         0                      
system.physmem.wrQLenPdf::1                         0                      
system.physmem.wrQLenPdf::2                         0                      
system.physmem.wrQLenPdf::3                         0                      
system.physmem.wrQLenPdf::4                         0                      
system.physmem.wrQLenPdf::5                         0                      
system.physmem.wrQLenPdf::6                         0                      
system.physmem.wrQLenPdf::7                         0                      
system.physmem.wrQLenPdf::8                         0                      
system.physmem.wrQLenPdf::9                         0                      
system.physmem.wrQLenPdf::10                        0                      
system.physmem.wrQLenPdf::11                        0                      
system.physmem.wrQLenPdf::12                        0                      
system.physmem.wrQLenPdf::13                        0                      
system.physmem.wrQLenPdf::14                        0                      
system.physmem.wrQLenPdf::15                        0                      
system.physmem.wrQLenPdf::16                        0                      
system.physmem.wrQLenPdf::17                        0                      
system.physmem.wrQLenPdf::18                        0                      
system.physmem.wrQLenPdf::19                        0                      
system.physmem.wrQLenPdf::20                        0                      
system.physmem.wrQLenPdf::21                        0                      
system.physmem.wrQLenPdf::22                        0                      
system.physmem.wrQLenPdf::23                        0                      
system.physmem.wrQLenPdf::24                        0                      
system.physmem.wrQLenPdf::25                        0                      
system.physmem.wrQLenPdf::26                        0                      
system.physmem.wrQLenPdf::27                        0                      
system.physmem.wrQLenPdf::28                        0                      
system.physmem.wrQLenPdf::29                        0                      
system.physmem.wrQLenPdf::30                        0                      
system.physmem.wrQLenPdf::31                        0                      
system.physmem.wrQLenPdf::32                        0                      
system.physmem.wrQLenPdf::33                        0                      
system.physmem.wrQLenPdf::34                        0                      
system.physmem.wrQLenPdf::35                        0                      
system.physmem.wrQLenPdf::36                        0                      
system.physmem.wrQLenPdf::37                        0                      
system.physmem.wrQLenPdf::38                        0                      
system.physmem.wrQLenPdf::39                        0                      
system.physmem.wrQLenPdf::40                        0                      
system.physmem.wrQLenPdf::41                        0                      
system.physmem.wrQLenPdf::42                        0                      
system.physmem.wrQLenPdf::43                        0                      
system.physmem.wrQLenPdf::44                        0                      
system.physmem.wrQLenPdf::45                        0                      
system.physmem.wrQLenPdf::46                        0                      
system.physmem.wrQLenPdf::47                        0                      
system.physmem.wrQLenPdf::48                        0                      
system.physmem.wrQLenPdf::49                        0                      
system.physmem.wrQLenPdf::50                        0                      
system.physmem.wrQLenPdf::51                        0                      
system.physmem.wrQLenPdf::52                        0                      
system.physmem.wrQLenPdf::53                        0                      
system.physmem.wrQLenPdf::54                        0                      
system.physmem.wrQLenPdf::55                        0                      
system.physmem.wrQLenPdf::56                        0                      
system.physmem.wrQLenPdf::57                        0                      
system.physmem.wrQLenPdf::58                        0                      
system.physmem.wrQLenPdf::59                        0                      
system.physmem.wrQLenPdf::60                        0                      
system.physmem.wrQLenPdf::61                        0                      
system.physmem.wrQLenPdf::62                        0                      
system.physmem.wrQLenPdf::63                        0                      
system.physmem.bytesPerActivate::samples          389                      
system.physmem.bytesPerActivate::mean      296.966580                      
system.physmem.bytesPerActivate::gmean     213.108502                      
system.physmem.bytesPerActivate::stdev     243.176003                      
system.physmem.bytesPerActivate::0-127             84     21.59%     21.59%
system.physmem.bytesPerActivate::128-255          117     30.07%     51.67%
system.physmem.bytesPerActivate::256-383           61     15.68%     67.35%
system.physmem.bytesPerActivate::384-511           58     14.91%     82.26%
system.physmem.bytesPerActivate::512-639           25      6.42%     88.68%
system.physmem.bytesPerActivate::640-767           15      3.85%     92.54%
system.physmem.bytesPerActivate::768-895           12      3.08%     95.62%
system.physmem.bytesPerActivate::896-1023            4      1.02%     96.65%
system.physmem.bytesPerActivate::1024-1151           13      3.34%     99.99%
system.physmem.bytesPerActivate::total            389                      
system.physmem.totQLat                       25468500                      
system.physmem.totMemAccLat                  59706000                      
system.physmem.totBusLat                      9130000                      
system.physmem.avgQLat                       13947.69                      
system.physmem.avgBusLat                      5000.00                      
system.physmem.avgMemAccLat                  32697.69                      
system.physmem.avgRdBW                         294.11                      
system.physmem.avgWrBW                           0.00                      
system.physmem.avgRdBWSys                      294.11                      
system.physmem.avgWrBWSys                        0.00                      
system.physmem.peakBW                        12800.00                      
system.physmem.busUtil                           2.29                      
system.physmem.busUtilRead                       2.29                      
system.physmem.busUtilWrite                      0.00                      
system.physmem.avgRdQLen                         1.07                      
system.physmem.avgWrQLen                         0.00                      
system.physmem.readRowHits                       1431                      
system.physmem.writeRowHits                         0                      
system.physmem.readRowHitRate                   78.36                      
system.physmem.writeRowHitRate                    nan                      
system.physmem.avgGap                       217546.54                      
system.physmem.pageHitRate                      78.36                      
system.physmem_0.actEnergy                    1977780                      
system.physmem_0.preEnergy                    1051215                      
system.physmem_0.readEnergy                   9381960                      
system.physmem_0.writeEnergy                        0                      
system.physmem_0.refreshEnergy           31346640.000000                      
system.physmem_0.actBackEnergy               22152480                      
system.physmem_0.preBackEnergy                 670560                      
system.physmem_0.actPowerDownEnergy         153402390                      
system.physmem_0.prePowerDownEnergy           4081920                      
system.physmem_0.selfRefreshEnergy                  0                      
system.physmem_0.totalEnergy                224064945                      
system.physmem_0.averagePower              563.917347                      
system.physmem_0.totalIdleTime              347064000                      
system.physmem_0.memoryStateTime::IDLE         282000                      
system.physmem_0.memoryStateTime::REF        13218000                      
system.physmem_0.memoryStateTime::SREF              0                      
system.physmem_0.memoryStateTime::PRE_PDN     10623000                      
system.physmem_0.memoryStateTime::ACT        36772500                      
system.physmem_0.memoryStateTime::ACT_PDN    336441000                      
system.physmem_1.actEnergy                     842520                      
system.physmem_1.preEnergy                     425040                      
system.physmem_1.readEnergy                   3655680                      
system.physmem_1.writeEnergy                        0                      
system.physmem_1.refreshEnergy           13522080.000000                      
system.physmem_1.actBackEnergy                9091500                      
system.physmem_1.preBackEnergy                 593280                      
system.physmem_1.actPowerDownEnergy          50863950                      
system.physmem_1.prePowerDownEnergy          11414880                      
system.physmem_1.selfRefreshEnergy           57404880                      
system.physmem_1.totalEnergy                147813810                      
system.physmem_1.averagePower              372.011657                      
system.physmem_1.totalIdleTime              375826250                      
system.physmem_1.memoryStateTime::IDLE         939000                      
system.physmem_1.memoryStateTime::REF         5732000                      
system.physmem_1.memoryStateTime::SREF      234585000                      
system.physmem_1.memoryStateTime::PRE_PDN     29723250                      
system.physmem_1.memoryStateTime::ACT        14793250                      
system.physmem_1.memoryStateTime::ACT_PDN    111564000                      
system.pwrStateResidencyTicks::UNDEFINED    397336500                      
system.cpu.branchPred.lookups                  110264                      
system.cpu.branchPred.condPredicted             77228                      
system.cpu.branchPred.condIncorrect              7893                      
system.cpu.branchPred.BTBLookups                67788                      
system.cpu.branchPred.BTBHits                   35101                      
system.cpu.branchPred.BTBCorrect                    0                      
system.cpu.branchPred.BTBHitPct             51.780551                      
system.cpu.branchPred.usedRAS                       0                      
system.cpu.branchPred.RASInCorrect                  0                      
system.cpu.branchPred.indirectLookups           22607                      
system.cpu.branchPred.indirectHits              13475                      
system.cpu.branchPred.indirectMisses             9132                      
system.cpu.branchPredindirectMispredicted         4545                      
system.cpu_clk_domain.clock                       500                      
system.cpu.dtb.read_hits                            0                      
system.cpu.dtb.read_misses                          0                      
system.cpu.dtb.read_accesses                        0                      
system.cpu.dtb.write_hits                           0                      
system.cpu.dtb.write_misses                         0                      
system.cpu.dtb.write_accesses                       0                      
system.cpu.dtb.hits                                 0                      
system.cpu.dtb.misses                               0                      
system.cpu.dtb.accesses                             0                      
system.cpu.itb.read_hits                            0                      
system.cpu.itb.read_misses                          0                      
system.cpu.itb.read_accesses                        0                      
system.cpu.itb.write_hits                           0                      
system.cpu.itb.write_misses                         0                      
system.cpu.itb.write_accesses                       0                      
system.cpu.itb.hits                                 0                      
system.cpu.itb.misses                               0                      
system.cpu.itb.accesses                             0                      
system.cpu.workload.numSyscalls                   220                      
system.cpu.pwrStateResidencyTicks::ON       397336500                      
system.cpu.numCycles                           794673                      
system.cpu.numWorkItemsStarted                      0                      
system.cpu.numWorkItemsCompleted                    0                      
system.cpu.committedInsts                      400645                      
system.cpu.committedOps                        401876                      
system.cpu.discardedOps                         21847                      
system.cpu.numFetchSuspends                         0                      
system.cpu.cpi                               1.983484                      
system.cpu.ipc                               0.504163                      
system.cpu.op_class_0::No_OpClass                 224      0.05%      0.05%
system.cpu.op_class_0::IntAlu                  237173     59.01%     59.07%
system.cpu.op_class_0::IntMult                    638      0.15%     59.23%
system.cpu.op_class_0::IntDiv                       4      0.00%     59.23%
system.cpu.op_class_0::FloatAdd                    11      0.00%     59.23%
system.cpu.op_class_0::FloatCmp                   170      0.04%     59.27%
system.cpu.op_class_0::FloatCvt                   128      0.03%     59.30%
system.cpu.op_class_0::FloatMult                    8      0.00%     59.31%
system.cpu.op_class_0::FloatMultAcc                22      0.00%     59.31%
system.cpu.op_class_0::FloatDiv                    11      0.00%     59.31%
system.cpu.op_class_0::FloatMisc                  122      0.03%     59.34%
system.cpu.op_class_0::FloatSqrt                    5      0.00%     59.35%
system.cpu.op_class_0::SimdAdd                      0      0.00%     59.35%
system.cpu.op_class_0::SimdAddAcc                   0      0.00%     59.35%
system.cpu.op_class_0::SimdAlu                      0      0.00%     59.35%
system.cpu.op_class_0::SimdCmp                      0      0.00%     59.35%
system.cpu.op_class_0::SimdCvt                      0      0.00%     59.35%
system.cpu.op_class_0::SimdMisc                     0      0.00%     59.35%
system.cpu.op_class_0::SimdMult                     0      0.00%     59.35%
system.cpu.op_class_0::SimdMultAcc                  0      0.00%     59.35%
system.cpu.op_class_0::SimdShift                    0      0.00%     59.35%
system.cpu.op_class_0::SimdShiftAcc                 0      0.00%     59.35%
system.cpu.op_class_0::SimdSqrt                     0      0.00%     59.35%
system.cpu.op_class_0::SimdFloatAdd                 0      0.00%     59.35%
system.cpu.op_class_0::SimdFloatAlu                 0      0.00%     59.35%
system.cpu.op_class_0::SimdFloatCmp                 0      0.00%     59.35%
system.cpu.op_class_0::SimdFloatCvt                 0      0.00%     59.35%
system.cpu.op_class_0::SimdFloatDiv                 0      0.00%     59.35%
system.cpu.op_class_0::SimdFloatMisc                0      0.00%     59.35%
system.cpu.op_class_0::SimdFloatMult                0      0.00%     59.35%
system.cpu.op_class_0::SimdFloatMultAcc             0      0.00%     59.35%
system.cpu.op_class_0::SimdFloatSqrt                0      0.00%     59.35%
system.cpu.op_class_0::MemRead                 101109     25.15%     84.50%
system.cpu.op_class_0::MemWrite                 61499     15.30%     99.81%
system.cpu.op_class_0::FloatMemRead               571      0.14%     99.95%
system.cpu.op_class_0::FloatMemWrite              181      0.04%     99.99%
system.cpu.op_class_0::IprAccess                    0      0.00%     99.99%
system.cpu.op_class_0::InstPrefetch                 0      0.00%     99.99%
system.cpu.op_class_0::total                   401876                      
system.cpu.tickCycles                          532226                      
system.cpu.idleCycles                          262447                      
system.cpu.fetch2.int_instructions             298529                      
system.cpu.fetch2.fp_instructions                1292                      
system.cpu.fetch2.vec_instructions                  0                      
system.cpu.fetch2.load_instructions            120135                      
system.cpu.fetch2.store_instructions            72467                      
system.cpu.dcache.tags.pwrStateResidencyTicks::UNDEFINED    397336500                      
system.cpu.dcache.tags.replacements                 1                      
system.cpu.dcache.tags.tagsinuse           408.822084                      
system.cpu.dcache.tags.total_refs              166507                      
system.cpu.dcache.tags.sampled_refs               534                      
system.cpu.dcache.tags.avg_refs            311.810861                      
system.cpu.dcache.tags.warmup_cycle            202500                      
system.cpu.dcache.tags.occ_blocks::cpu.data   408.822084                      
system.cpu.dcache.tags.occ_percent::cpu.data     0.099810                      
system.cpu.dcache.tags.occ_percent::total     0.099810                      
system.cpu.dcache.tags.occ_task_id_blocks::1024          533                      
system.cpu.dcache.tags.age_task_id_blocks_1024::0           13                      
system.cpu.dcache.tags.age_task_id_blocks_1024::1           29                      
system.cpu.dcache.tags.age_task_id_blocks_1024::2          491                      
system.cpu.dcache.tags.occ_task_id_percent::1024     0.130126                      
system.cpu.dcache.tags.tag_accesses            334962                      
system.cpu.dcache.tags.data_accesses           334962                      
system.cpu.dcache.pwrStateResidencyTicks::UNDEFINED    397336500                      
system.cpu.dcache.ReadReq_hits::cpu.data       103538                      
system.cpu.dcache.ReadReq_hits::total          103538                      
system.cpu.dcache.WriteReq_hits::cpu.data        59596                      
system.cpu.dcache.WriteReq_hits::total          59596                      
system.cpu.dcache.LoadLockedReq_hits::cpu.data         1686                      
system.cpu.dcache.LoadLockedReq_hits::total         1686                      
system.cpu.dcache.StoreCondReq_hits::cpu.data         1687                      
system.cpu.dcache.StoreCondReq_hits::total         1687                      
system.cpu.dcache.demand_hits::cpu.data        163134                      
system.cpu.dcache.demand_hits::total           163134                      
system.cpu.dcache.overall_hits::cpu.data       163134                      
system.cpu.dcache.overall_hits::total          163134                      
system.cpu.dcache.ReadReq_misses::cpu.data          309                      
system.cpu.dcache.ReadReq_misses::total           309                      
system.cpu.dcache.WriteReq_misses::cpu.data          397                      
system.cpu.dcache.WriteReq_misses::total          397                      
system.cpu.dcache.LoadLockedReq_misses::cpu.data            1                      
system.cpu.dcache.LoadLockedReq_misses::total            1                      
system.cpu.dcache.demand_misses::cpu.data          706                      
system.cpu.dcache.demand_misses::total            706                      
system.cpu.dcache.overall_misses::cpu.data          706                      
system.cpu.dcache.overall_misses::total           706                      
system.cpu.dcache.ReadReq_miss_latency::cpu.data     27583500                      
system.cpu.dcache.ReadReq_miss_latency::total     27583500                      
system.cpu.dcache.WriteReq_miss_latency::cpu.data     32210000                      
system.cpu.dcache.WriteReq_miss_latency::total     32210000                      
system.cpu.dcache.LoadLockedReq_miss_latency::cpu.data        92000                      
system.cpu.dcache.LoadLockedReq_miss_latency::total        92000                      
system.cpu.dcache.demand_miss_latency::cpu.data     59793500                      
system.cpu.dcache.demand_miss_latency::total     59793500                      
system.cpu.dcache.overall_miss_latency::cpu.data     59793500                      
system.cpu.dcache.overall_miss_latency::total     59793500                      
system.cpu.dcache.ReadReq_accesses::cpu.data       103847                      
system.cpu.dcache.ReadReq_accesses::total       103847                      
system.cpu.dcache.WriteReq_accesses::cpu.data        59993                      
system.cpu.dcache.WriteReq_accesses::total        59993                      
system.cpu.dcache.LoadLockedReq_accesses::cpu.data         1687                      
system.cpu.dcache.LoadLockedReq_accesses::total         1687                      
system.cpu.dcache.StoreCondReq_accesses::cpu.data         1687                      
system.cpu.dcache.StoreCondReq_accesses::total         1687                      
system.cpu.dcache.demand_accesses::cpu.data       163840                      
system.cpu.dcache.demand_accesses::total       163840                      
system.cpu.dcache.overall_accesses::cpu.data       163840                      
system.cpu.dcache.overall_accesses::total       163840                      
system.cpu.dcache.ReadReq_miss_rate::cpu.data     0.002975                      
system.cpu.dcache.ReadReq_miss_rate::total     0.002975                      
system.cpu.dcache.WriteReq_miss_rate::cpu.data     0.006617                      
system.cpu.dcache.WriteReq_miss_rate::total     0.006617                      
system.cpu.dcache.LoadLockedReq_miss_rate::cpu.data     0.000592                      
system.cpu.dcache.LoadLockedReq_miss_rate::total     0.000592                      
system.cpu.dcache.demand_miss_rate::cpu.data     0.004309                      
system.cpu.dcache.demand_miss_rate::total     0.004309                      
system.cpu.dcache.overall_miss_rate::cpu.data     0.004309                      
system.cpu.dcache.overall_miss_rate::total     0.004309                      
system.cpu.dcache.ReadReq_avg_miss_latency::cpu.data 89266.990291                      
system.cpu.dcache.ReadReq_avg_miss_latency::total 89266.990291                      
system.cpu.dcache.WriteReq_avg_miss_latency::cpu.data 81133.501259                      
system.cpu.dcache.WriteReq_avg_miss_latency::total 81133.501259                      
system.cpu.dcache.LoadLockedReq_avg_miss_latency::cpu.data        92000                      
system.cpu.dcache.LoadLockedReq_avg_miss_latency::total        92000                      
system.cpu.dcache.demand_avg_miss_latency::cpu.data 84693.342776                      
system.cpu.dcache.demand_avg_miss_latency::total 84693.342776                      
system.cpu.dcache.overall_avg_miss_latency::cpu.data 84693.342776                      
system.cpu.dcache.overall_avg_miss_latency::total 84693.342776                      
system.cpu.dcache.blocked_cycles::no_mshrs            0                      
system.cpu.dcache.blocked_cycles::no_targets            0                      
system.cpu.dcache.blocked::no_mshrs                 0                      
system.cpu.dcache.blocked::no_targets               0                      
system.cpu.dcache.avg_blocked_cycles::no_mshrs          nan                      
system.cpu.dcache.avg_blocked_cycles::no_targets          nan                      
system.cpu.dcache.writebacks::writebacks            1                      
system.cpu.dcache.writebacks::total                 1                      
system.cpu.dcache.ReadReq_mshr_hits::cpu.data            3                      
system.cpu.dcache.ReadReq_mshr_hits::total            3                      
system.cpu.dcache.WriteReq_mshr_hits::cpu.data          170                      
system.cpu.dcache.WriteReq_mshr_hits::total          170                      
system.cpu.dcache.demand_mshr_hits::cpu.data          173                      
system.cpu.dcache.demand_mshr_hits::total          173                      
system.cpu.dcache.overall_mshr_hits::cpu.data          173                      
system.cpu.dcache.overall_mshr_hits::total          173                      
system.cpu.dcache.ReadReq_mshr_misses::cpu.data          306                      
system.cpu.dcache.ReadReq_mshr_misses::total          306                      
system.cpu.dcache.WriteReq_mshr_misses::cpu.data          227                      
system.cpu.dcache.WriteReq_mshr_misses::total          227                      
system.cpu.dcache.LoadLockedReq_mshr_misses::cpu.data            1                      
system.cpu.dcache.LoadLockedReq_mshr_misses::total            1                      
system.cpu.dcache.demand_mshr_misses::cpu.data          533                      
system.cpu.dcache.demand_mshr_misses::total          533                      
system.cpu.dcache.overall_mshr_misses::cpu.data          533                      
system.cpu.dcache.overall_mshr_misses::total          533                      
system.cpu.dcache.ReadReq_mshr_miss_latency::cpu.data     27103000                      
system.cpu.dcache.ReadReq_mshr_miss_latency::total     27103000                      
system.cpu.dcache.WriteReq_mshr_miss_latency::cpu.data     19471000                      
system.cpu.dcache.WriteReq_mshr_miss_latency::total     19471000                      
system.cpu.dcache.LoadLockedReq_mshr_miss_latency::cpu.data        91000                      
system.cpu.dcache.LoadLockedReq_mshr_miss_latency::total        91000                      
system.cpu.dcache.demand_mshr_miss_latency::cpu.data     46574000                      
system.cpu.dcache.demand_mshr_miss_latency::total     46574000                      
system.cpu.dcache.overall_mshr_miss_latency::cpu.data     46574000                      
system.cpu.dcache.overall_mshr_miss_latency::total     46574000                      
system.cpu.dcache.ReadReq_mshr_miss_rate::cpu.data     0.002946                      
system.cpu.dcache.ReadReq_mshr_miss_rate::total     0.002946                      
system.cpu.dcache.WriteReq_mshr_miss_rate::cpu.data     0.003783                      
system.cpu.dcache.WriteReq_mshr_miss_rate::total     0.003783                      
system.cpu.dcache.LoadLockedReq_mshr_miss_rate::cpu.data     0.000592                      
system.cpu.dcache.LoadLockedReq_mshr_miss_rate::total     0.000592                      
system.cpu.dcache.demand_mshr_miss_rate::cpu.data     0.003253                      
system.cpu.dcache.demand_mshr_miss_rate::total     0.003253                      
system.cpu.dcache.overall_mshr_miss_rate::cpu.data     0.003253                      
system.cpu.dcache.overall_mshr_miss_rate::total     0.003253                      
system.cpu.dcache.ReadReq_avg_mshr_miss_latency::cpu.data 88571.895424                      
system.cpu.dcache.ReadReq_avg_mshr_miss_latency::total 88571.895424                      
system.cpu.dcache.WriteReq_avg_mshr_miss_latency::cpu.data 85775.330396                      
system.cpu.dcache.WriteReq_avg_mshr_miss_latency::total 85775.330396                      
system.cpu.dcache.LoadLockedReq_avg_mshr_miss_latency::cpu.data        91000                      
system.cpu.dcache.LoadLockedReq_avg_mshr_miss_latency::total        91000                      
system.cpu.dcache.demand_avg_mshr_miss_latency::cpu.data 87380.863039                      
system.cpu.dcache.demand_avg_mshr_miss_latency::total 87380.863039                      
system.cpu.dcache.overall_avg_mshr_miss_latency::cpu.data 87380.863039                      
system.cpu.dcache.overall_avg_mshr_miss_latency::total 87380.863039                      
system.cpu.icache.tags.pwrStateResidencyTicks::UNDEFINED    397336500                      
system.cpu.icache.tags.replacements               111                      
system.cpu.icache.tags.tagsinuse           799.535369                      
system.cpu.icache.tags.total_refs              145887                      
system.cpu.icache.tags.sampled_refs              1300                      
system.cpu.icache.tags.avg_refs            112.220769                      
system.cpu.icache.tags.warmup_cycle             87500                      
system.cpu.icache.tags.occ_blocks::cpu.inst   799.535369                      
system.cpu.icache.tags.occ_percent::cpu.inst     0.390398                      
system.cpu.icache.tags.occ_percent::total     0.390398                      
system.cpu.icache.tags.occ_task_id_blocks::1024         1189                      
system.cpu.icache.tags.age_task_id_blocks_1024::0           52                      
system.cpu.icache.tags.age_task_id_blocks_1024::1          136                      
system.cpu.icache.tags.age_task_id_blocks_1024::2         1001                      
system.cpu.icache.tags.occ_task_id_percent::1024     0.580566                      
system.cpu.icache.tags.tag_accesses            295676                      
system.cpu.icache.tags.data_accesses           295676                      
system.cpu.icache.pwrStateResidencyTicks::UNDEFINED    397336500                      
system.cpu.icache.ReadReq_hits::cpu.inst       145887                      
system.cpu.icache.ReadReq_hits::total          145887                      
system.cpu.icache.demand_hits::cpu.inst        145887                      
system.cpu.icache.demand_hits::total           145887                      
system.cpu.icache.overall_hits::cpu.inst       145887                      
system.cpu.icache.overall_hits::total          145887                      
system.cpu.icache.ReadReq_misses::cpu.inst         1301                      
system.cpu.icache.ReadReq_misses::total          1301                      
system.cpu.icache.demand_misses::cpu.inst         1301                      
system.cpu.icache.demand_misses::total           1301                      
system.cpu.icache.overall_misses::cpu.inst         1301                      
system.cpu.icache.overall_misses::total          1301                      
system.cpu.icache.ReadReq_miss_latency::cpu.inst    110364000                      
system.cpu.icache.ReadReq_miss_latency::total    110364000                      
system.cpu.icache.demand_miss_latency::cpu.inst    110364000                      
system.cpu.icache.demand_miss_latency::total    110364000                      
system.cpu.icache.overall_miss_latency::cpu.inst    110364000                      
system.cpu.icache.overall_miss_latency::total    110364000                      
system.cpu.icache.ReadReq_accesses::cpu.inst       147188                      
system.cpu.icache.ReadReq_accesses::total       147188                      
system.cpu.icache.demand_accesses::cpu.inst       147188                      
system.cpu.icache.demand_accesses::total       147188                      
system.cpu.icache.overall_accesses::cpu.inst       147188                      
system.cpu.icache.overall_accesses::total       147188                      
system.cpu.icache.ReadReq_miss_rate::cpu.inst     0.008839                      
system.cpu.icache.ReadReq_miss_rate::total     0.008839                      
system.cpu.icache.demand_miss_rate::cpu.inst     0.008839                      
system.cpu.icache.demand_miss_rate::total     0.008839                      
system.cpu.icache.overall_miss_rate::cpu.inst     0.008839                      
system.cpu.icache.overall_miss_rate::total     0.008839                      
system.cpu.icache.ReadReq_avg_miss_latency::cpu.inst 84830.130668                      
system.cpu.icache.ReadReq_avg_miss_latency::total 84830.130668                      
system.cpu.icache.demand_avg_miss_latency::cpu.inst 84830.130668                      
system.cpu.icache.demand_avg_miss_latency::total 84830.130668                      
system.cpu.icache.overall_avg_miss_latency::cpu.inst 84830.130668                      
system.cpu.icache.overall_avg_miss_latency::total 84830.130668                      
system.cpu.icache.blocked_cycles::no_mshrs            0                      
system.cpu.icache.blocked_cycles::no_targets            0                      
system.cpu.icache.blocked::no_mshrs                 0                      
system.cpu.icache.blocked::no_targets               0                      
system.cpu.icache.avg_blocked_cycles::no_mshrs          nan                      
system.cpu.icache.avg_blocked_cycles::no_targets          nan                      
system.cpu.icache.writebacks::writebacks          111                      
system.cpu.icache.writebacks::total               111                      
system.cpu.icache.ReadReq_mshr_misses::cpu.inst         1301                      
system.cpu.icache.ReadReq_mshr_misses::total         1301                      
system.cpu.icache.demand_mshr_misses::cpu.inst         1301                      
system.cpu.icache.demand_mshr_misses::total         1301                      
system.cpu.icache.overall_mshr_misses::cpu.inst         1301                      
system.cpu.icache.overall_mshr_misses::total         1301                      
system.cpu.icache.ReadReq_mshr_miss_latency::cpu.inst    109064000                      
system.cpu.icache.ReadReq_mshr_miss_latency::total    109064000                      
system.cpu.icache.demand_mshr_miss_latency::cpu.inst    109064000                      
system.cpu.icache.demand_mshr_miss_latency::total    109064000                      
system.cpu.icache.overall_mshr_miss_latency::cpu.inst    109064000                      
system.cpu.icache.overall_mshr_miss_latency::total    109064000                      
system.cpu.icache.ReadReq_mshr_miss_rate::cpu.inst     0.008839                      
system.cpu.icache.ReadReq_mshr_miss_rate::total     0.008839                      
system.cpu.icache.demand_mshr_miss_rate::cpu.inst     0.008839                      
system.cpu.icache.demand_mshr_miss_rate::total     0.008839                      
system.cpu.icache.overall_mshr_miss_rate::cpu.inst     0.008839                      
system.cpu.icache.overall_mshr_miss_rate::total     0.008839                      
system.cpu.icache.ReadReq_avg_mshr_miss_latency::cpu.inst 83830.899308                      
system.cpu.icache.ReadReq_avg_mshr_miss_latency::total 83830.899308                      
system.cpu.icache.demand_avg_mshr_miss_latency::cpu.inst 83830.899308                      
system.cpu.icache.demand_avg_mshr_miss_latency::total 83830.899308                      
system.cpu.icache.overall_avg_mshr_miss_latency::cpu.inst 83830.899308                      
system.cpu.icache.overall_avg_mshr_miss_latency::total 83830.899308                      
system.cpu.l2cache.tags.pwrStateResidencyTicks::UNDEFINED    397336500                      
system.cpu.l2cache.tags.replacements                0                      
system.cpu.l2cache.tags.tagsinuse         1255.718348                      
system.cpu.l2cache.tags.total_refs                120                      
system.cpu.l2cache.tags.sampled_refs             1826                      
system.cpu.l2cache.tags.avg_refs             0.065717                      
system.cpu.l2cache.tags.warmup_cycle            77000                      
system.cpu.l2cache.tags.occ_blocks::cpu.inst   847.275251                      
system.cpu.l2cache.tags.occ_blocks::cpu.data   408.443097                      
system.cpu.l2cache.tags.occ_percent::cpu.inst     0.025856                      
system.cpu.l2cache.tags.occ_percent::cpu.data     0.012464                      
system.cpu.l2cache.tags.occ_percent::total     0.038321                      
system.cpu.l2cache.tags.occ_task_id_blocks::1024         1826                      
system.cpu.l2cache.tags.age_task_id_blocks_1024::0           64                      
system.cpu.l2cache.tags.age_task_id_blocks_1024::1          165                      
system.cpu.l2cache.tags.age_task_id_blocks_1024::2         1597                      
system.cpu.l2cache.tags.occ_task_id_percent::1024     0.055725                      
system.cpu.l2cache.tags.tag_accesses            17402                      
system.cpu.l2cache.tags.data_accesses           17402                      
system.cpu.l2cache.pwrStateResidencyTicks::UNDEFINED    397336500                      
system.cpu.l2cache.WritebackDirty_hits::writebacks            1                      
system.cpu.l2cache.WritebackDirty_hits::total            1                      
system.cpu.l2cache.WritebackClean_hits::writebacks          111                      
system.cpu.l2cache.WritebackClean_hits::total          111                      
system.cpu.l2cache.ReadCleanReq_hits::cpu.inst            7                      
system.cpu.l2cache.ReadCleanReq_hits::total            7                      
system.cpu.l2cache.ReadSharedReq_hits::cpu.data            1                      
system.cpu.l2cache.ReadSharedReq_hits::total            1                      
system.cpu.l2cache.demand_hits::cpu.inst            7                      
system.cpu.l2cache.demand_hits::cpu.data            1                      
system.cpu.l2cache.demand_hits::total               8                      
system.cpu.l2cache.overall_hits::cpu.inst            7                      
system.cpu.l2cache.overall_hits::cpu.data            1                      
system.cpu.l2cache.overall_hits::total              8                      
system.cpu.l2cache.ReadExReq_misses::cpu.data          227                      
system.cpu.l2cache.ReadExReq_misses::total          227                      
system.cpu.l2cache.ReadCleanReq_misses::cpu.inst         1294                      
system.cpu.l2cache.ReadCleanReq_misses::total         1294                      
system.cpu.l2cache.ReadSharedReq_misses::cpu.data          306                      
system.cpu.l2cache.ReadSharedReq_misses::total          306                      
system.cpu.l2cache.demand_misses::cpu.inst         1294                      
system.cpu.l2cache.demand_misses::cpu.data          533                      
system.cpu.l2cache.demand_misses::total          1827                      
system.cpu.l2cache.overall_misses::cpu.inst         1294                      
system.cpu.l2cache.overall_misses::cpu.data          533                      
system.cpu.l2cache.overall_misses::total         1827                      
system.cpu.l2cache.ReadExReq_miss_latency::cpu.data     19128500                      
system.cpu.l2cache.ReadExReq_miss_latency::total     19128500                      
system.cpu.l2cache.ReadCleanReq_miss_latency::cpu.inst    107040500                      
system.cpu.l2cache.ReadCleanReq_miss_latency::total    107040500                      
system.cpu.l2cache.ReadSharedReq_miss_latency::cpu.data     26720500                      
system.cpu.l2cache.ReadSharedReq_miss_latency::total     26720500                      
system.cpu.l2cache.demand_miss_latency::cpu.inst    107040500                      
system.cpu.l2cache.demand_miss_latency::cpu.data     45849000                      
system.cpu.l2cache.demand_miss_latency::total    152889500                      
system.cpu.l2cache.overall_miss_latency::cpu.inst    107040500                      
system.cpu.l2cache.overall_miss_latency::cpu.data     45849000                      
system.cpu.l2cache.overall_miss_latency::total    152889500                      
system.cpu.l2cache.WritebackDirty_accesses::writebacks            1                      
system.cpu.l2cache.WritebackDirty_accesses::total            1                      
system.cpu.l2cache.WritebackClean_accesses::writebacks          111                      
system.cpu.l2cache.WritebackClean_accesses::total          111                      
system.cpu.l2cache.ReadExReq_accesses::cpu.data          227                      
system.cpu.l2cache.ReadExReq_accesses::total          227                      
system.cpu.l2cache.ReadCleanReq_accesses::cpu.inst         1301                      
system.cpu.l2cache.ReadCleanReq_accesses::total         1301                      
system.cpu.l2cache.ReadSharedReq_accesses::cpu.data          307                      
system.cpu.l2cache.ReadSharedReq_accesses::total          307                      
system.cpu.l2cache.demand_accesses::cpu.inst         1301                      
system.cpu.l2cache.demand_accesses::cpu.data          534                      
system.cpu.l2cache.demand_accesses::total         1835                      
system.cpu.l2cache.overall_accesses::cpu.inst         1301                      
system.cpu.l2cache.overall_accesses::cpu.data          534                      
system.cpu.l2cache.overall_accesses::total         1835                      
system.cpu.l2cache.ReadExReq_miss_rate::cpu.data            1                      
system.cpu.l2cache.ReadExReq_miss_rate::total            1                      
system.cpu.l2cache.ReadCleanReq_miss_rate::cpu.inst     0.994619                      
system.cpu.l2cache.ReadCleanReq_miss_rate::total     0.994619                      
system.cpu.l2cache.ReadSharedReq_miss_rate::cpu.data     0.996742                      
system.cpu.l2cache.ReadSharedReq_miss_rate::total     0.996742                      
system.cpu.l2cache.demand_miss_rate::cpu.inst     0.994619                      
system.cpu.l2cache.demand_miss_rate::cpu.data     0.998127                      
system.cpu.l2cache.demand_miss_rate::total     0.995640                      
system.cpu.l2cache.overall_miss_rate::cpu.inst     0.994619                      
system.cpu.l2cache.overall_miss_rate::cpu.data     0.998127                      
system.cpu.l2cache.overall_miss_rate::total     0.995640                      
system.cpu.l2cache.ReadExReq_avg_miss_latency::cpu.data 84266.519823                      
system.cpu.l2cache.ReadExReq_avg_miss_latency::total 84266.519823                      
system.cpu.l2cache.ReadCleanReq_avg_miss_latency::cpu.inst 82720.633693                      
system.cpu.l2cache.ReadCleanReq_avg_miss_latency::total 82720.633693                      
system.cpu.l2cache.ReadSharedReq_avg_miss_latency::cpu.data 87321.895424                      
system.cpu.l2cache.ReadSharedReq_avg_miss_latency::total 87321.895424                      
system.cpu.l2cache.demand_avg_miss_latency::cpu.inst 82720.633693                      
system.cpu.l2cache.demand_avg_miss_latency::cpu.data 86020.637898                      
system.cpu.l2cache.demand_avg_miss_latency::total 83683.360700                      
system.cpu.l2cache.overall_avg_miss_latency::cpu.inst 82720.633693                      
system.cpu.l2cache.overall_avg_miss_latency::cpu.data 86020.637898                      
system.cpu.l2cache.overall_avg_miss_latency::total 83683.360700                      
system.cpu.l2cache.blocked_cycles::no_mshrs            0                      
system.cpu.l2cache.blocked_cycles::no_targets            0                      
system.cpu.l2cache.blocked::no_mshrs                0                      
system.cpu.l2cache.blocked::no_targets              0                      
system.cpu.l2cache.avg_blocked_cycles::no_mshrs          nan                      
system.cpu.l2cache.avg_blocked_cycles::no_targets          nan                      
system.cpu.l2cache.ReadExReq_mshr_misses::cpu.data          227                      
system.cpu.l2cache.ReadExReq_mshr_misses::total          227                      
system.cpu.l2cache.ReadCleanReq_mshr_misses::cpu.inst         1294                      
system.cpu.l2cache.ReadCleanReq_mshr_misses::total         1294                      
system.cpu.l2cache.ReadSharedReq_mshr_misses::cpu.data          306                      
system.cpu.l2cache.ReadSharedReq_mshr_misses::total          306                      
system.cpu.l2cache.demand_mshr_misses::cpu.inst         1294                      
system.cpu.l2cache.demand_mshr_misses::cpu.data          533                      
system.cpu.l2cache.demand_mshr_misses::total         1827                      
system.cpu.l2cache.overall_mshr_misses::cpu.inst         1294                      
system.cpu.l2cache.overall_mshr_misses::cpu.data          533                      
system.cpu.l2cache.overall_mshr_misses::total         1827                      
system.cpu.l2cache.ReadExReq_mshr_miss_latency::cpu.data     16858500                      
system.cpu.l2cache.ReadExReq_mshr_miss_latency::total     16858500                      
system.cpu.l2cache.ReadCleanReq_mshr_miss_latency::cpu.inst     94110500                      
system.cpu.l2cache.ReadCleanReq_mshr_miss_latency::total     94110500                      
system.cpu.l2cache.ReadSharedReq_mshr_miss_latency::cpu.data     23660500                      
system.cpu.l2cache.ReadSharedReq_mshr_miss_latency::total     23660500                      
system.cpu.l2cache.demand_mshr_miss_latency::cpu.inst     94110500                      
system.cpu.l2cache.demand_mshr_miss_latency::cpu.data     40519000                      
system.cpu.l2cache.demand_mshr_miss_latency::total    134629500                      
system.cpu.l2cache.overall_mshr_miss_latency::cpu.inst     94110500                      
system.cpu.l2cache.overall_mshr_miss_latency::cpu.data     40519000                      
system.cpu.l2cache.overall_mshr_miss_latency::total    134629500                      
system.cpu.l2cache.ReadExReq_mshr_miss_rate::cpu.data            1                      
system.cpu.l2cache.ReadExReq_mshr_miss_rate::total            1                      
system.cpu.l2cache.ReadCleanReq_mshr_miss_rate::cpu.inst     0.994619                      
system.cpu.l2cache.ReadCleanReq_mshr_miss_rate::total     0.994619                      
system.cpu.l2cache.ReadSharedReq_mshr_miss_rate::cpu.data     0.996742                      
system.cpu.l2cache.ReadSharedReq_mshr_miss_rate::total     0.996742                      
system.cpu.l2cache.demand_mshr_miss_rate::cpu.inst     0.994619                      
system.cpu.l2cache.demand_mshr_miss_rate::cpu.data     0.998127                      
system.cpu.l2cache.demand_mshr_miss_rate::total     0.995640                      
system.cpu.l2cache.overall_mshr_miss_rate::cpu.inst     0.994619                      
system.cpu.l2cache.overall_mshr_miss_rate::cpu.data     0.998127                      
system.cpu.l2cache.overall_mshr_miss_rate::total     0.995640                      
system.cpu.l2cache.ReadExReq_avg_mshr_miss_latency::cpu.data 74266.519823                      
system.cpu.l2cache.ReadExReq_avg_mshr_miss_latency::total 74266.519823                      
system.cpu.l2cache.ReadCleanReq_avg_mshr_miss_latency::cpu.inst 72728.361669                      
system.cpu.l2cache.ReadCleanReq_avg_mshr_miss_latency::total 72728.361669                      
system.cpu.l2cache.ReadSharedReq_avg_mshr_miss_latency::cpu.data 77321.895424                      
system.cpu.l2cache.ReadSharedReq_avg_mshr_miss_latency::total 77321.895424                      
system.cpu.l2cache.demand_avg_mshr_miss_latency::cpu.inst 72728.361669                      
system.cpu.l2cache.demand_avg_mshr_miss_latency::cpu.data 76020.637898                      
system.cpu.l2cache.demand_avg_mshr_miss_latency::total 73688.834154                      
system.cpu.l2cache.overall_avg_mshr_miss_latency::cpu.inst 72728.361669                      
system.cpu.l2cache.overall_avg_mshr_miss_latency::cpu.data 76020.637898                      
system.cpu.l2cache.overall_avg_mshr_miss_latency::total 73688.834154                      
system.cpu.toL2Bus.snoop_filter.tot_requests         1947                      
system.cpu.toL2Bus.snoop_filter.hit_single_requests          113                      
system.cpu.toL2Bus.snoop_filter.hit_multi_requests            0                      
system.cpu.toL2Bus.snoop_filter.tot_snoops            0                      
system.cpu.toL2Bus.snoop_filter.hit_single_snoops            0                      
system.cpu.toL2Bus.snoop_filter.hit_multi_snoops            0                      
system.cpu.toL2Bus.pwrStateResidencyTicks::UNDEFINED    397336500                      
system.cpu.toL2Bus.trans_dist::ReadResp          1607                      
system.cpu.toL2Bus.trans_dist::WritebackDirty            1                      
system.cpu.toL2Bus.trans_dist::WritebackClean          111                      
system.cpu.toL2Bus.trans_dist::ReadExReq          227                      
system.cpu.toL2Bus.trans_dist::ReadExResp          227                      
system.cpu.toL2Bus.trans_dist::ReadCleanReq         1301                      
system.cpu.toL2Bus.trans_dist::ReadSharedReq          307                      
system.cpu.toL2Bus.pkt_count_system.cpu.icache.mem_side::system.cpu.l2cache.cpu_side         2712                      
system.cpu.toL2Bus.pkt_count_system.cpu.dcache.mem_side::system.cpu.l2cache.cpu_side         1069                      
system.cpu.toL2Bus.pkt_count::total              3781                      
system.cpu.toL2Bus.pkt_size_system.cpu.icache.mem_side::system.cpu.l2cache.cpu_side        90304                      
system.cpu.toL2Bus.pkt_size_system.cpu.dcache.mem_side::system.cpu.l2cache.cpu_side        34240                      
system.cpu.toL2Bus.pkt_size::total             124544                      
system.cpu.toL2Bus.snoops                           0                      
system.cpu.toL2Bus.snoopTraffic                     0                      
system.cpu.toL2Bus.snoop_fanout::samples         1835                      
system.cpu.toL2Bus.snoop_fanout::mean        0.000544                      
system.cpu.toL2Bus.snoop_fanout::stdev       0.023344                      
system.cpu.toL2Bus.snoop_fanout::underflows            0      0.00%      0.00%
system.cpu.toL2Bus.snoop_fanout::0               1834     99.94%     99.94%
system.cpu.toL2Bus.snoop_fanout::1                  1      0.05%     99.99%
system.cpu.toL2Bus.snoop_fanout::2                  0      0.00%     99.99%
system.cpu.toL2Bus.snoop_fanout::overflows            0      0.00%     99.99%
system.cpu.toL2Bus.snoop_fanout::min_value            0                      
system.cpu.toL2Bus.snoop_fanout::max_value            1                      
system.cpu.toL2Bus.snoop_fanout::total           1835                      
system.cpu.toL2Bus.reqLayer0.occupancy        1085500                      
system.cpu.toL2Bus.reqLayer0.utilization          0.2                      
system.cpu.toL2Bus.respLayer0.occupancy       1950000                      
system.cpu.toL2Bus.respLayer0.utilization          0.4                      
system.cpu.toL2Bus.respLayer1.occupancy        801000                      
system.cpu.toL2Bus.respLayer1.utilization          0.2                      
system.membus.snoop_filter.tot_requests          1826                      
system.membus.snoop_filter.hit_single_requests            0                      
system.membus.snoop_filter.hit_multi_requests            0                      
system.membus.snoop_filter.tot_snoops               0                      
system.membus.snoop_filter.hit_single_snoops            0                      
system.membus.snoop_filter.hit_multi_snoops            0                      
system.membus.pwrStateResidencyTicks::UNDEFINED    397336500                      
system.membus.trans_dist::ReadResp               1599                      
system.membus.trans_dist::ReadExReq               227                      
system.membus.trans_dist::ReadExResp              227                      
system.membus.trans_dist::ReadSharedReq          1599                      
system.membus.pkt_count_system.cpu.l2cache.mem_side::system.physmem.port         3652                      
system.membus.pkt_count::total                   3652                      
system.membus.pkt_size_system.cpu.l2cache.mem_side::system.physmem.port       116864                      
system.membus.pkt_size::total                  116864                      
system.membus.snoops                                0                      
system.membus.snoopTraffic                          0                      
system.membus.snoop_fanout::samples              1826                      
system.membus.snoop_fanout::mean                    0                      
system.membus.snoop_fanout::stdev                  -0                      
system.membus.snoop_fanout::underflows              0      0.00%      0.00%
system.membus.snoop_fanout::0                    1826    100.00%    100.00%
system.membus.snoop_fanout::1                       0      0.00%    100.00%
system.membus.snoop_fanout::overflows               0      0.00%    100.00%
system.membus.snoop_fanout::min_value               0                      
system.membus.snoop_fanout::max_value               0                      
system.membus.snoop_fanout::total                1826                      
system.membus.reqLayer0.occupancy             2157500                      
system.membus.reqLayer0.utilization               0.5                      
system.membus.respLayer1.occupancy            9708500                      
system.membus.respLayer1.utilization              2.4                      

---------- End Simulation Statistics   ----------
