
---------- Begin Simulation Statistics ----------
sim_seconds                                  0.000116                      
sim_ticks                                   116492500                      
final_tick                                  116492500                      
sim_freq                                 1000000000000                      
host_inst_rate                                 100750                      
host_op_rate                                   100945                      
host_tick_rate                              109179758                      
host_mem_usage                                 408684                      
host_seconds                                     1.07                      
sim_insts                                      107492                      
sim_ops                                        107704                      
system.voltage_domain.voltage                       1                      
system.clk_domain.clock                          1000                      
system.physmem.pwrStateResidencyTicks::UNDEFINED    116492500                      
system.physmem.bytes_read::cpu.inst             52544                      
system.physmem.bytes_read::cpu.data             29504                      
system.physmem.bytes_read::total                82048                      
system.physmem.bytes_inst_read::cpu.inst        52544                      
system.physmem.bytes_inst_read::total           52544                      
system.physmem.num_reads::cpu.inst                821                      
system.physmem.num_reads::cpu.data                461                      
system.physmem.num_reads::total                  1282                      
system.physmem.bw_read::cpu.inst            451050497                      
system.physmem.bw_read::cpu.data            253269524                      
system.physmem.bw_read::total               704320021                      
system.physmem.bw_inst_read::cpu.inst       451050497                      
system.physmem.bw_inst_read::total          451050497                      
system.physmem.bw_total::cpu.inst           451050497                      
system.physmem.bw_total::cpu.data           253269524                      
system.physmem.bw_total::total              704320021                      
system.physmem.readReqs                          1282                      
system.physmem.writeReqs                            0                      
system.physmem.readBursts                        1282                      
system.physmem.writeBursts                          0                      
system.physmem.bytesReadDRAM                    82048                      
system.physmem.bytesReadWrQ                         0                      
system.physmem.bytesWritten                         0                      
system.physmem.bytesReadSys                     82048                      
system.physmem.bytesWrittenSys                      0                      
system.physmem.servicedByWrQ                        0                      
system.physmem.mergedWrBursts                       0                      
system.physmem.neitherReadNorWriteReqs              0                      
system.physmem.perBankRdBursts::0                 160                      
system.physmem.perBankRdBursts::1                  68                      
system.physmem.perBankRdBursts::2                 113                      
system.physmem.perBankRdBursts::3                  68                      
system.physmem.perBankRdBursts::4                  26                      
system.physmem.perBankRdBursts::5                  73                      
system.physmem.perBankRdBursts::6                  28                      
system.physmem.perBankRdBursts::7                  34                      
system.physmem.perBankRdBursts::8                  81                      
system.physmem.perBankRdBursts::9                 128                      
system.physmem.perBankRdBursts::10                169                      
system.physmem.perBankRdBursts::11                139                      
system.physmem.perBankRdBursts::12                 51                      
system.physmem.perBankRdBursts::13                 51                      
system.physmem.perBankRdBursts::14                 49                      
system.physmem.perBankRdBursts::15                 44                      
system.physmem.perBankWrBursts::0                   0                      
system.physmem.perBankWrBursts::1                   0                      
system.physmem.perBankWrBursts::2                   0                      
system.physmem.perBankWrBursts::3                   0                      
system.physmem.perBankWrBursts::4                   0                      
system.physmem.perBankWrBursts::5                   0                      
system.physmem.perBankWrBursts::6                   0                      
system.physmem.perBankWrBursts::7                   0                      
system.physmem.perBankWrBursts::8                   0                      
system.physmem.perBankWrBursts::9                   0                      
system.physmem.perBankWrBursts::10                  0                      
system.physmem.perBankWrBursts::11                  0                      
system.physmem.perBankWrBursts::12                  0                      
system.physmem.perBankWrBursts::13                  0                      
system.physmem.perBankWrBursts::14                  0                      
system.physmem.perBankWrBursts::15                  0                      
system.physmem.numRdRetry                           0                      
system.physmem.numWrRetry                           0                      
system.physmem.totGap                       116411500                      
system.physmem.readPktSize::0                       0                      
system.physmem.readPktSize::1                       0                      
system.physmem.readPktSize::2                       0                      
system.physmem.readPktSize::3                       0                      
system.physmem.readPktSize::4                       0                      
system.physmem.readPktSize::5                       0                      
system.physmem.readPktSize::6                    1282                      
system.physmem.writePktSize::0                      0                      
system.physmem.writePktSize::1                      0                      
system.physmem.writePktSize::2                      0                      
system.physmem.writePktSize::3                      0                      
system.physmem.writePktSize::4                      0                      
system.physmem.writePktSize::5                      0                      
system.physmem.writePktSize::6                      0                      
system.physmem.rdQLenPdf::0                       773                      
system.physmem.rdQLenPdf::1                       331                      
system.physmem.rdQLenPdf::2                       125                      
system.physmem.rdQLenPdf::3                        43                      
system.physmem.rdQLenPdf::4                         9                      
system.physmem.rdQLenPdf::5                         1                      
system.physmem.rdQLenPdf::6                         0                      
system.physmem.rdQLenPdf::7                         0                      
system.physmem.rdQLenPdf::8                         0                      
system.physmem.rdQLenPdf::9                         0                      
system.physmem.rdQLenPdf::10                        0                      
system.physmem.rdQLenPdf::11                        0                      
system.physmem.rdQLenPdf::12                        0                      
system.physmem.rdQLenPdf::13                        0                      
system.physmem.rdQLenPdf::14                        0                      
system.physmem.rdQLenPdf::15                        0                      
system.physmem.rdQLenPdf::16                        0                      
system.physmem.rdQLenPdf::17                        0                      
system.physmem.rdQLenPdf::18                        0                      
system.physmem.rdQLenPdf::19                        0                      
system.physmem.rdQLenPdf::20                        0                      
system.physmem.rdQLenPdf::21                        0                      
system.physmem.rdQLenPdf::22                        0                      
system.physmem.rdQLenPdf::23                        0                      
system.physmem.rdQLenPdf::24                        0                      
system.physmem.rdQLenPdf::25                        0                      
system.physmem.rdQLenPdf::26                        0                      
system.physmem.rdQLenPdf::27                        0                      
system.physmem.rdQLenPdf::28                        0                      
system.physmem.rdQLenPdf::29                        0                      
system.physmem.rdQLenPdf::30                        0                      
system.physmem.rdQLenPdf::31                        0                      
system.physmem.wrQLenPdf::0                         0                      
system.physmem.wrQLenPdf::1                         0                      
system.physmem.wrQLenPdf::2                         0                      
system.physmem.wrQLenPdf::3                         0                      
system.physmem.wrQLenPdf::4                         0                      
system.physmem.wrQLenPdf::5                         0                      
system.physmem.wrQLenPdf::6                         0                      
system.physmem.wrQLenPdf::7                         0                      
system.physmem.wrQLenPdf::8                         0                      
system.physmem.wrQLenPdf::9                         0                      
system.physmem.wrQLenPdf::10                        0                      
system.physmem.wrQLenPdf::11                        0                      
system.physmem.wrQLenPdf::12                        0                      
system.physmem.wrQLenPdf::13                        0                      
system.physmem.wrQLenPdf::14                        0                      
system.physmem.wrQLenPdf::15                        0                      
system.physmem.wrQLenPdf::16                        0                      
system.physmem.wrQLenPdf::17                        0                      
system.physmem.wrQLenPdf::18                        0                      
system.physmem.wrQLenPdf::19                        0                      
system.physmem.wrQLenPdf::20                        0                      
system.physmem.wrQLenPdf::21                        0                      
system.physmem.wrQLenPdf::22                        0                      
system.physmem.wrQLenPdf::23                        0                      
system.physmem.wrQLenPdf::24                        0                      
system.physmem.wrQLenPdf::25                        0                      
system.physmem.wrQLenPdf::26                        0                      
system.physmem.wrQLenPdf::27                        0                      
system.physmem.wrQLenPdf::28                        0                      
system.physmem.wrQLenPdf::29                        0                      
system.physmem.wrQLenPdf::30                        0                      
system.physmem.wrQLenPdf::31                        0                      
system.physmem.wrQLenPdf::32                        0                      
system.physmem.wrQLenPdf::33                        0                      
system.physmem.wrQLenPdf::34                        0                      
system.physmem.wrQLenPdf::35                        0                      
system.physmem.wrQLenPdf::36                        0                      
system.physmem.wrQLenPdf::37                        0                      
system.physmem.wrQLenPdf::38                        0                      
system.physmem.wrQLenPdf::39                        0                      
system.physmem.wrQLenPdf::40                        0                      
system.physmem.wrQLenPdf::41                        0                      
system.physmem.wrQLenPdf::42                        0                      
system.physmem.wrQLenPdf::43                        0                      
system.physmem.wrQLenPdf::44                        0                      
system.physmem.wrQLenPdf::45                        0                      
system.physmem.wrQLenPdf::46                        0                      
system.physmem.wrQLenPdf::47                        0                      
system.physmem.wrQLenPdf::48                        0                      
system.physmem.wrQLenPdf::49                        0                      
system.physmem.wrQLenPdf::50                        0                      
system.physmem.wrQLenPdf::51                        0                      
system.physmem.wrQLenPdf::52                        0                      
system.physmem.wrQLenPdf::53                        0                      
system.physmem.wrQLenPdf::54                        0                      
system.physmem.wrQLenPdf::55                        0                      
system.physmem.wrQLenPdf::56                        0                      
system.physmem.wrQLenPdf::57                        0                      
system.physmem.wrQLenPdf::58                        0                      
system.physmem.wrQLenPdf::59                        0                      
system.physmem.wrQLenPdf::60                        0                      
system.physmem.wrQLenPdf::61                        0                      
system.physmem.wrQLenPdf::62                        0                      
system.physmem.wrQLenPdf::63                        0                      
system.physmem.bytesPerActivate::samples          266                      
system.physmem.bytesPerActivate::mean      298.345865                      
system.physmem.bytesPerActivate::gmean     195.270932                      
system.physmem.bytesPerActivate::stdev     278.263566                      
system.physmem.bytesPerActivate::0-127             81     30.45%     30.45%
system.physmem.bytesPerActivate::128-255           65     24.44%     54.89%
system.physmem.bytesPerActivate::256-383           40     15.04%     69.92%
system.physmem.bytesPerActivate::384-511           25      9.40%     79.32%
system.physmem.bytesPerActivate::512-639           16      6.02%     85.34%
system.physmem.bytesPerActivate::640-767           10      3.76%     89.10%
system.physmem.bytesPerActivate::768-895            8      3.01%     92.11%
system.physmem.bytesPerActivate::896-1023            7      2.63%     94.74%
system.physmem.bytesPerActivate::1024-1151           14      5.26%    100.00%
system.physmem.bytesPerActivate::total            266                      
system.physmem.totQLat                       20485250                      
system.physmem.totMemAccLat                  44522750                      
system.physmem.totBusLat                      6410000                      
system.physmem.avgQLat                       15979.13                      
system.physmem.avgBusLat                      5000.00                      
system.physmem.avgMemAccLat                  34729.13                      
system.physmem.avgRdBW                         704.32                      
system.physmem.avgWrBW                           0.00                      
system.physmem.avgRdBWSys                      704.32                      
system.physmem.avgWrBWSys                        0.00                      
system.physmem.peakBW                        12800.00                      
system.physmem.busUtil                           5.50                      
system.physmem.busUtilRead                       5.50                      
system.physmem.busUtilWrite                      0.00                      
system.physmem.avgRdQLen                         1.54                      
system.physmem.avgWrQLen                         0.00                      
system.physmem.readRowHits                       1003                      
system.physmem.writeRowHits                         0                      
system.physmem.readRowHitRate                   78.24                      
system.physmem.writeRowHitRate                    nan                      
system.physmem.avgGap                        90804.60                      
system.physmem.pageHitRate                      78.24                      
system.physmem_0.actEnergy                     863940                      
system.physmem_0.preEnergy                     432630                      
system.physmem_0.readEnergy                   4069800                      
system.physmem_0.writeEnergy                        0                      
system.physmem_0.refreshEnergy           9219600.000000                      
system.physmem_0.actBackEnergy                8758620                      
system.physmem_0.preBackEnergy                 303840                      
system.physmem_0.actPowerDownEnergy          41201310                      
system.physmem_0.prePowerDownEnergy           2172480                      
system.physmem_0.selfRefreshEnergy       668040.000000                      
system.physmem_0.totalEnergy                 67690260                      
system.physmem_0.averagePower              581.069683                      
system.physmem_0.totalIdleTime               94859250                      
system.physmem_0.memoryStateTime::IDLE         355750                      
system.physmem_0.memoryStateTime::REF         3906000                      
system.physmem_0.memoryStateTime::SREF         482000                      
system.physmem_0.memoryStateTime::PRE_PDN      5658500                      
system.physmem_0.memoryStateTime::ACT        15745750                      
system.physmem_0.memoryStateTime::ACT_PDN     90344500                      
system.physmem_1.actEnergy                    1128120                      
system.physmem_1.preEnergy                     576840                      
system.physmem_1.readEnergy                   5083680                      
system.physmem_1.writeEnergy                        0                      
system.physmem_1.refreshEnergy           8604960.000000                      
system.physmem_1.actBackEnergy                9713940                      
system.physmem_1.preBackEnergy                 248160                      
system.physmem_1.actPowerDownEnergy          40036230                      
system.physmem_1.prePowerDownEnergy           2590080                      
system.physmem_1.selfRefreshEnergy                  0                      
system.physmem_1.totalEnergy                 67982010                      
system.physmem_1.averagePower              583.574136                      
system.physmem_1.totalIdleTime               94529750                      
system.physmem_1.memoryStateTime::IDLE         260500                      
system.physmem_1.memoryStateTime::REF         3640000                      
system.physmem_1.memoryStateTime::SREF              0                      
system.physmem_1.memoryStateTime::PRE_PDN      6742500                      
system.physmem_1.memoryStateTime::ACT        18045000                      
system.physmem_1.memoryStateTime::ACT_PDN     87804500                      
system.pwrStateResidencyTicks::UNDEFINED    116492500                      
system.cpu.branchPred.lookups                   32886                      
system.cpu.branchPred.condPredicted             22607                      
system.cpu.branchPred.condIncorrect              4810                      
system.cpu.branchPred.BTBLookups                26373                      
system.cpu.branchPred.BTBHits                   13459                      
system.cpu.branchPred.BTBCorrect                    0                      
system.cpu.branchPred.BTBHitPct             51.033254                      
system.cpu.branchPred.usedRAS                       0                      
system.cpu.branchPred.RASInCorrect                  0                      
system.cpu.branchPred.indirectLookups            7218                      
system.cpu.branchPred.indirectHits               3581                      
system.cpu.branchPred.indirectMisses             3637                      
system.cpu.branchPredindirectMispredicted         1455                      
system.cpu_clk_domain.clock                       500                      
system.cpu.dtb.read_hits                            0                      
system.cpu.dtb.read_misses                          0                      
system.cpu.dtb.read_accesses                        0                      
system.cpu.dtb.write_hits                           0                      
system.cpu.dtb.write_misses                         0                      
system.cpu.dtb.write_accesses                       0                      
system.cpu.dtb.hits                                 0                      
system.cpu.dtb.misses                               0                      
system.cpu.dtb.accesses                             0                      
system.cpu.itb.read_hits                            0                      
system.cpu.itb.read_misses                          0                      
system.cpu.itb.read_accesses                        0                      
system.cpu.itb.write_hits                           0                      
system.cpu.itb.write_misses                         0                      
system.cpu.itb.write_accesses                       0                      
system.cpu.itb.hits                                 0                      
system.cpu.itb.misses                               0                      
system.cpu.itb.accesses                             0                      
system.cpu.workload.numSyscalls                    45                      
system.cpu.pwrStateResidencyTicks::ON       116492500                      
system.cpu.numCycles                           232986                      
system.cpu.numWorkItemsStarted                      0                      
system.cpu.numWorkItemsCompleted                    0                      
system.cpu.fetch.icacheStallCycles              40491                      
system.cpu.fetch.Insts                         143650                      
system.cpu.fetch.Branches                       32886                      
system.cpu.fetch.predictedBranches              17040                      
system.cpu.fetch.Cycles                        106433                      
system.cpu.fetch.SquashCycles                    9748                      
system.cpu.fetch.MiscStallCycles                    5                      
system.cpu.fetch.IcacheWaitRetryStallCycles           74                      
system.cpu.fetch.CacheLines                     23166                      
system.cpu.fetch.IcacheSquashes                  1070                      
system.cpu.fetch.rateDist::samples             151877                      
system.cpu.fetch.rateDist::mean              0.947405                      
system.cpu.fetch.rateDist::stdev             0.999756                      
system.cpu.fetch.rateDist::underflows               0      0.00%      0.00%
system.cpu.fetch.rateDist::0                    52513     34.58%     34.58%
system.cpu.fetch.rateDist::1                    71389     47.00%     81.58%
system.cpu.fetch.rateDist::2                    17906     11.79%     93.37%
system.cpu.fetch.rateDist::3                     6231      4.10%     97.47%
system.cpu.fetch.rateDist::4                     2406      1.58%     99.06%
system.cpu.fetch.rateDist::5                      722      0.48%     99.53%
system.cpu.fetch.rateDist::6                      415      0.27%     99.81%
system.cpu.fetch.rateDist::7                       89      0.06%     99.86%
system.cpu.fetch.rateDist::8                      206      0.14%    100.00%
system.cpu.fetch.rateDist::overflows                0      0.00%    100.00%
system.cpu.fetch.rateDist::min_value                0                      
system.cpu.fetch.rateDist::max_value                8                      
system.cpu.fetch.rateDist::total               151877                      
system.cpu.fetch.branchRate                  0.141150                      
system.cpu.fetch.rate                        0.616561                      
system.cpu.decode.IdleCycles                    43301                      
system.cpu.decode.BlockedCycles                 14841                      
system.cpu.decode.RunCycles                     89893                      
system.cpu.decode.UnblockCycles                   425                      
system.cpu.decode.SquashCycles                   3417                      
system.cpu.decode.BranchResolved                13444                      
system.cpu.decode.BranchMispred                  1555                      
system.cpu.decode.DecodedInsts                 133819                      
system.cpu.decode.SquashedInsts                  2686                      
system.cpu.rename.SquashCycles                   3417                      
system.cpu.rename.IdleCycles                    47421                      
system.cpu.rename.BlockCycles                    1700                      
system.cpu.rename.serializeStallCycles           7718                      
system.cpu.rename.RunCycles                     86187                      
system.cpu.rename.UnblockCycles                  5434                      
system.cpu.rename.RenamedInsts                 129563                      
system.cpu.rename.ROBFullEvents                     4                      
system.cpu.rename.IQFullEvents                      5                      
system.cpu.rename.LQFullEvents                   2443                      
system.cpu.rename.SQFullEvents                   2745                      
system.cpu.rename.RenamedOperands               86046                      
system.cpu.rename.RenameLookups                157852                      
system.cpu.rename.int_rename_lookups           157840                      
system.cpu.rename.fp_rename_lookups                12                      
system.cpu.rename.CommittedMaps                 70908                      
system.cpu.rename.UndoneMaps                    15138                      
system.cpu.rename.serializingInsts                311                      
system.cpu.rename.tempSerializingInsts            311                      
system.cpu.rename.skidInsts                      1105                      
system.cpu.memDep0.insertedLoads                28079                      
system.cpu.memDep0.insertedStores               17587                      
system.cpu.memDep0.conflictingLoads               286                      
system.cpu.memDep0.conflictingStores               22                      
system.cpu.iq.iqInstsAdded                     120941                      
system.cpu.iq.iqNonSpecInstsAdded                 532                      
system.cpu.iq.iqInstsIssued                    119613                      
system.cpu.iq.iqSquashedInstsIssued                72                      
system.cpu.iq.iqSquashedInstsExamined           13768                      
system.cpu.iq.iqSquashedOperandsExamined         4676                      
system.cpu.iq.iqSquashedNonSpecRemoved             34                      
system.cpu.iq.issued_per_cycle::samples        151877                      
system.cpu.iq.issued_per_cycle::mean         0.787565                      
system.cpu.iq.issued_per_cycle::stdev        0.919428                      
system.cpu.iq.issued_per_cycle::underflows            0      0.00%      0.00%
system.cpu.iq.issued_per_cycle::0               68161     44.88%     44.88%
system.cpu.iq.issued_per_cycle::1               58220     38.33%     83.21%
system.cpu.iq.issued_per_cycle::2               18439     12.14%     95.35%
system.cpu.iq.issued_per_cycle::3                4953      3.26%     98.61%
system.cpu.iq.issued_per_cycle::4                1297      0.85%     99.47%
system.cpu.iq.issued_per_cycle::5                 518      0.34%     99.81%
system.cpu.iq.issued_per_cycle::6                 175      0.12%     99.92%
system.cpu.iq.issued_per_cycle::7                  84      0.06%     99.98%
system.cpu.iq.issued_per_cycle::8                  30      0.02%    100.00%
system.cpu.iq.issued_per_cycle::overflows            0      0.00%    100.00%
system.cpu.iq.issued_per_cycle::min_value            0                      
system.cpu.iq.issued_per_cycle::max_value            8                      
system.cpu.iq.issued_per_cycle::total          151877                      
system.cpu.iq.fu_full::No_OpClass                   0      0.00%      0.00%
system.cpu.iq.fu_full::IntAlu                      22     11.34%     11.34%
system.cpu.iq.fu_full::IntMult                      0      0.00%     11.34%
system.cpu.iq.fu_full::IntDiv                       0      0.00%     11.34%
system.cpu.iq.fu_full::FloatAdd                     0      0.00%     11.34%
system.cpu.iq.fu_full::FloatCmp                     0      0.00%     11.34%
system.cpu.iq.fu_full::FloatCvt                     0      0.00%     11.34%
system.cpu.iq.fu_full::FloatMult                    0      0.00%     11.34%
system.cpu.iq.fu_full::FloatMultAcc                 0      0.00%     11.34%
system.cpu.iq.fu_full::FloatDiv                     0      0.00%     11.34%
system.cpu.iq.fu_full::FloatMisc                    0      0.00%     11.34%
system.cpu.iq.fu_full::FloatSqrt                    0      0.00%     11.34%
system.cpu.iq.fu_full::SimdAdd                      0      0.00%     11.34%
system.cpu.iq.fu_full::SimdAddAcc                   0      0.00%     11.34%
system.cpu.iq.fu_full::SimdAlu                      0      0.00%     11.34%
system.cpu.iq.fu_full::SimdCmp                      0      0.00%     11.34%
system.cpu.iq.fu_full::SimdCvt                      0      0.00%     11.34%
system.cpu.iq.fu_full::SimdMisc                     0      0.00%     11.34%
system.cpu.iq.fu_full::SimdMult                     0      0.00%     11.34%
system.cpu.iq.fu_full::SimdMultAcc                  0      0.00%     11.34%
system.cpu.iq.fu_full::SimdShift                    0      0.00%     11.34%
system.cpu.iq.fu_full::SimdShiftAcc                 0      0.00%     11.34%
system.cpu.iq.fu_full::SimdSqrt                     0      0.00%     11.34%
system.cpu.iq.fu_full::SimdFloatAdd                 0      0.00%     11.34%
system.cpu.iq.fu_full::SimdFloatAlu                 0      0.00%     11.34%
system.cpu.iq.fu_full::SimdFloatCmp                 0      0.00%     11.34%
system.cpu.iq.fu_full::SimdFloatCvt                 0      0.00%     11.34%
system.cpu.iq.fu_full::SimdFloatDiv                 0      0.00%     11.34%
system.cpu.iq.fu_full::SimdFloatMisc                0      0.00%     11.34%
system.cpu.iq.fu_full::SimdFloatMult                0      0.00%     11.34%
system.cpu.iq.fu_full::SimdFloatMultAcc             0      0.00%     11.34%
system.cpu.iq.fu_full::SimdFloatSqrt                0      0.00%     11.34%
system.cpu.iq.fu_full::MemRead                     64     32.99%     44.33%
system.cpu.iq.fu_full::MemWrite                   105     54.12%     98.45%
system.cpu.iq.fu_full::FloatMemRead                 0      0.00%     98.45%
system.cpu.iq.fu_full::FloatMemWrite                3      1.55%    100.00%
system.cpu.iq.fu_full::IprAccess                    0      0.00%    100.00%
system.cpu.iq.fu_full::InstPrefetch                 0      0.00%    100.00%
system.cpu.iq.FU_type_0::No_OpClass                49      0.04%      0.04%
system.cpu.iq.FU_type_0::IntAlu                 74376     62.18%     62.22%
system.cpu.iq.FU_type_0::IntMult                  131      0.11%     62.33%
system.cpu.iq.FU_type_0::IntDiv                    36      0.03%     62.36%
system.cpu.iq.FU_type_0::FloatAdd                   0      0.00%     62.36%
system.cpu.iq.FU_type_0::FloatCmp                   0      0.00%     62.36%
system.cpu.iq.FU_type_0::FloatCvt                   0      0.00%     62.36%
system.cpu.iq.FU_type_0::FloatMult                  0      0.00%     62.36%
system.cpu.iq.FU_type_0::FloatMultAcc               0      0.00%     62.36%
system.cpu.iq.FU_type_0::FloatDiv                   0      0.00%     62.36%
system.cpu.iq.FU_type_0::FloatMisc                  0      0.00%     62.36%
system.cpu.iq.FU_type_0::FloatSqrt                  0      0.00%     62.36%
system.cpu.iq.FU_type_0::SimdAdd                    0      0.00%     62.36%
system.cpu.iq.FU_type_0::SimdAddAcc                 0      0.00%     62.36%
system.cpu.iq.FU_type_0::SimdAlu                    0      0.00%     62.36%
system.cpu.iq.FU_type_0::SimdCmp                    0      0.00%     62.36%
system.cpu.iq.FU_type_0::SimdCvt                    0      0.00%     62.36%
system.cpu.iq.FU_type_0::SimdMisc                   0      0.00%     62.36%
system.cpu.iq.FU_type_0::SimdMult                   0      0.00%     62.36%
system.cpu.iq.FU_type_0::SimdMultAcc                0      0.00%     62.36%
system.cpu.iq.FU_type_0::SimdShift                  0      0.00%     62.36%
system.cpu.iq.FU_type_0::SimdShiftAcc               0      0.00%     62.36%
system.cpu.iq.FU_type_0::SimdSqrt                   0      0.00%     62.36%
system.cpu.iq.FU_type_0::SimdFloatAdd               0      0.00%     62.36%
system.cpu.iq.FU_type_0::SimdFloatAlu               0      0.00%     62.36%
system.cpu.iq.FU_type_0::SimdFloatCmp               0      0.00%     62.36%
system.cpu.iq.FU_type_0::SimdFloatCvt               0      0.00%     62.36%
system.cpu.iq.FU_type_0::SimdFloatDiv               0      0.00%     62.36%
system.cpu.iq.FU_type_0::SimdFloatMisc              0      0.00%     62.36%
system.cpu.iq.FU_type_0::SimdFloatMult              0      0.00%     62.36%
system.cpu.iq.FU_type_0::SimdFloatMultAcc            0      0.00%     62.36%
system.cpu.iq.FU_type_0::SimdFloatSqrt              0      0.00%     62.36%
system.cpu.iq.FU_type_0::MemRead                27786     23.23%     85.59%
system.cpu.iq.FU_type_0::MemWrite               17223     14.40%     99.99%
system.cpu.iq.FU_type_0::FloatMemRead               0      0.00%     99.99%
system.cpu.iq.FU_type_0::FloatMemWrite             12      0.01%    100.00%
system.cpu.iq.FU_type_0::IprAccess                  0      0.00%    100.00%
system.cpu.iq.FU_type_0::InstPrefetch               0      0.00%    100.00%
system.cpu.iq.FU_type_0::total                 119613                      
system.cpu.iq.rate                           0.513391                      
system.cpu.iq.fu_busy_cnt                         194                      
system.cpu.iq.fu_busy_rate                   0.001622                      
system.cpu.iq.int_inst_queue_reads             391342                      
system.cpu.iq.int_inst_queue_writes            135249                      
system.cpu.iq.int_inst_queue_wakeup_accesses       115099                      
system.cpu.iq.fp_inst_queue_reads                  27                      
system.cpu.iq.fp_inst_queue_writes                 12                      
system.cpu.iq.fp_inst_queue_wakeup_accesses           12                      
system.cpu.iq.vec_inst_queue_reads                  0                      
system.cpu.iq.vec_inst_queue_writes                 0                      
system.cpu.iq.vec_inst_queue_wakeup_accesses            0                      
system.cpu.iq.int_alu_accesses                 119743                      
system.cpu.iq.fp_alu_accesses                      15                      
system.cpu.iq.vec_alu_accesses                      0                      
system.cpu.iew.lsq.thread0.forwLoads              599                      
system.cpu.iew.lsq.thread0.invAddrLoads             0                      
system.cpu.iew.lsq.thread0.squashedLoads         2811                      
system.cpu.iew.lsq.thread0.ignoredResponses           19                      
system.cpu.iew.lsq.thread0.memOrderViolation           20                      
system.cpu.iew.lsq.thread0.squashedStores         1246                      
system.cpu.iew.lsq.thread0.invAddrSwpfs             0                      
system.cpu.iew.lsq.thread0.blockedLoads             0                      
system.cpu.iew.lsq.thread0.rescheduledLoads            0                      
system.cpu.iew.lsq.thread0.cacheBlocked           127                      
system.cpu.iew.iewIdleCycles                        0                      
system.cpu.iew.iewSquashCycles                   3417                      
system.cpu.iew.iewBlockCycles                     844                      
system.cpu.iew.iewUnblockCycles                   664                      
system.cpu.iew.iewDispatchedInsts              121473                      
system.cpu.iew.iewDispSquashedInsts              3696                      
system.cpu.iew.iewDispLoadInsts                 28079                      
system.cpu.iew.iewDispStoreInsts                17587                      
system.cpu.iew.iewDispNonSpecInsts                527                      
system.cpu.iew.iewIQFullEvents                      1                      
system.cpu.iew.iewLSQFullEvents                   663                      
system.cpu.iew.memOrderViolationEvents             20                      
system.cpu.iew.predictedTakenIncorrect           1311                      
system.cpu.iew.predictedNotTakenIncorrect         2377                      
system.cpu.iew.branchMispredicts                 3688                      
system.cpu.iew.iewExecutedInsts                116116                      
system.cpu.iew.iewExecLoadInsts                 27220                      
system.cpu.iew.iewExecSquashedInsts              3497                      
system.cpu.iew.exec_swp                             0                      
system.cpu.iew.exec_nop                             0                      
system.cpu.iew.exec_refs                        44257                      
system.cpu.iew.exec_branches                    25839                      
system.cpu.iew.exec_stores                      17037                      
system.cpu.iew.exec_rate                     0.498382                      
system.cpu.iew.wb_sent                         115321                      
system.cpu.iew.wb_count                        115111                      
system.cpu.iew.wb_producers                     38070                      
system.cpu.iew.wb_consumers                     43239                      
system.cpu.iew.wb_rate                       0.494068                      
system.cpu.iew.wb_fanout                     0.880455                      
system.cpu.commit.commitSquashedInsts           13772                      
system.cpu.commit.commitNonSpecStalls             498                      
system.cpu.commit.branchMispredicts              3353                      
system.cpu.commit.committed_per_cycle::samples       147830                      
system.cpu.commit.committed_per_cycle::mean     0.728567                      
system.cpu.commit.committed_per_cycle::stdev     1.291044                      
system.cpu.commit.committed_per_cycle::underflows            0      0.00%      0.00%
system.cpu.commit.committed_per_cycle::0        89934     60.84%     60.84%
system.cpu.commit.committed_per_cycle::1        35330     23.90%     84.74%
system.cpu.commit.committed_per_cycle::2         9233      6.25%     90.98%
system.cpu.commit.committed_per_cycle::3         7412      5.01%     95.99%
system.cpu.commit.committed_per_cycle::4         3116      2.11%     98.10%
system.cpu.commit.committed_per_cycle::5          711      0.48%     98.58%
system.cpu.commit.committed_per_cycle::6          369      0.25%     98.83%
system.cpu.commit.committed_per_cycle::7          361      0.24%     99.08%
system.cpu.commit.committed_per_cycle::8         1364      0.92%    100.00%
system.cpu.commit.committed_per_cycle::overflows            0      0.00%    100.00%
system.cpu.commit.committed_per_cycle::min_value            0                      
system.cpu.commit.committed_per_cycle::max_value            8                      
system.cpu.commit.committed_per_cycle::total       147830                      
system.cpu.commit.committedInsts               107492                      
system.cpu.commit.committedOps                 107704                      
system.cpu.commit.swp_count                         0                      
system.cpu.commit.refs                          41609                      
system.cpu.commit.loads                         25268                      
system.cpu.commit.membars                           4                      
system.cpu.commit.branches                      23844                      
system.cpu.commit.vec_insts                         0                      
system.cpu.commit.fp_insts                         12                      
system.cpu.commit.int_insts                    107118                      
system.cpu.commit.function_calls                 6216                      
system.cpu.commit.op_class_0::No_OpClass            4      0.00%      0.00%
system.cpu.commit.op_class_0::IntAlu            65937     61.22%     61.22%
system.cpu.commit.op_class_0::IntMult             124      0.12%     61.34%
system.cpu.commit.op_class_0::IntDiv               30      0.03%     61.37%
system.cpu.commit.op_class_0::FloatAdd              0      0.00%     61.37%
system.cpu.commit.op_class_0::FloatCmp              0      0.00%     61.37%
system.cpu.commit.op_class_0::FloatCvt              0      0.00%     61.37%
system.cpu.commit.op_class_0::FloatMult             0      0.00%     61.37%
system.cpu.commit.op_class_0::FloatMultAcc            0      0.00%     61.37%
system.cpu.commit.op_class_0::FloatDiv              0      0.00%     61.37%
system.cpu.commit.op_class_0::FloatMisc             0      0.00%     61.37%
system.cpu.commit.op_class_0::FloatSqrt             0      0.00%     61.37%
system.cpu.commit.op_class_0::SimdAdd               0      0.00%     61.37%
system.cpu.commit.op_class_0::SimdAddAcc            0      0.00%     61.37%
system.cpu.commit.op_class_0::SimdAlu               0      0.00%     61.37%
system.cpu.commit.op_class_0::SimdCmp               0      0.00%     61.37%
system.cpu.commit.op_class_0::SimdCvt               0      0.00%     61.37%
system.cpu.commit.op_class_0::SimdMisc              0      0.00%     61.37%
system.cpu.commit.op_class_0::SimdMult              0      0.00%     61.37%
system.cpu.commit.op_class_0::SimdMultAcc            0      0.00%     61.37%
system.cpu.commit.op_class_0::SimdShift             0      0.00%     61.37%
system.cpu.commit.op_class_0::SimdShiftAcc            0      0.00%     61.37%
system.cpu.commit.op_class_0::SimdSqrt              0      0.00%     61.37%
system.cpu.commit.op_class_0::SimdFloatAdd            0      0.00%     61.37%
system.cpu.commit.op_class_0::SimdFloatAlu            0      0.00%     61.37%
system.cpu.commit.op_class_0::SimdFloatCmp            0      0.00%     61.37%
system.cpu.commit.op_class_0::SimdFloatCvt            0      0.00%     61.37%
system.cpu.commit.op_class_0::SimdFloatDiv            0      0.00%     61.37%
system.cpu.commit.op_class_0::SimdFloatMisc            0      0.00%     61.37%
system.cpu.commit.op_class_0::SimdFloatMult            0      0.00%     61.37%
system.cpu.commit.op_class_0::SimdFloatMultAcc            0      0.00%     61.37%
system.cpu.commit.op_class_0::SimdFloatSqrt            0      0.00%     61.37%
system.cpu.commit.op_class_0::MemRead           25268     23.46%     84.83%
system.cpu.commit.op_class_0::MemWrite          16329     15.16%     99.99%
system.cpu.commit.op_class_0::FloatMemRead            0      0.00%     99.99%
system.cpu.commit.op_class_0::FloatMemWrite           12      0.01%    100.00%
system.cpu.commit.op_class_0::IprAccess             0      0.00%    100.00%
system.cpu.commit.op_class_0::InstPrefetch            0      0.00%    100.00%
system.cpu.commit.op_class_0::total            107704                      
system.cpu.commit.bw_lim_events                  1364                      
system.cpu.rob.rob_reads                       267370                      
system.cpu.rob.rob_writes                      247011                      
system.cpu.timesIdled                             626                      
system.cpu.idleCycles                           81109                      
system.cpu.committedInsts                      107492                      
system.cpu.committedOps                        107704                      
system.cpu.cpi                               2.167473                      
system.cpu.cpi_total                         2.167473                      
system.cpu.ipc                               0.461367                      
system.cpu.ipc_total                         0.461367                      
system.cpu.int_regfile_reads                   143243                      
system.cpu.int_regfile_writes                   76040                      
system.cpu.fp_regfile_reads                        12                      
system.cpu.dcache.tags.pwrStateResidencyTicks::UNDEFINED    116492500                      
system.cpu.dcache.tags.replacements                 0                      
system.cpu.dcache.tags.tagsinuse           321.790142                      
system.cpu.dcache.tags.total_refs               41017                      
system.cpu.dcache.tags.sampled_refs               462                      
system.cpu.dcache.tags.avg_refs             88.781385                      
system.cpu.dcache.tags.warmup_cycle            262500                      
system.cpu.dcache.tags.occ_blocks::cpu.data   321.790142                      
system.cpu.dcache.tags.occ_percent::cpu.data     0.078562                      
system.cpu.dcache.tags.occ_percent::total     0.078562                      
system.cpu.dcache.tags.occ_task_id_blocks::1024          462                      
system.cpu.dcache.tags.age_task_id_blocks_1024::0           14                      
system.cpu.dcache.tags.age_task_id_blocks_1024::1          289                      
system.cpu.dcache.tags.age_task_id_blocks_1024::2          159                      
system.cpu.dcache.tags.occ_task_id_percent::1024     0.112793                      
system.cpu.dcache.tags.tag_accesses             85952                      
system.cpu.dcache.tags.data_accesses            85952                      
system.cpu.dcache.pwrStateResidencyTicks::UNDEFINED    116492500                      
system.cpu.dcache.ReadReq_hits::cpu.data        25699                      
system.cpu.dcache.ReadReq_hits::total           25699                      
system.cpu.dcache.WriteReq_hits::cpu.data        14842                      
system.cpu.dcache.WriteReq_hits::total          14842                      
system.cpu.dcache.LoadLockedReq_hits::cpu.data          239                      
system.cpu.dcache.LoadLockedReq_hits::total          239                      
system.cpu.dcache.StoreCondReq_hits::cpu.data          237                      
system.cpu.dcache.StoreCondReq_hits::total          237                      
system.cpu.dcache.demand_hits::cpu.data         40541                      
system.cpu.dcache.demand_hits::total            40541                      
system.cpu.dcache.overall_hits::cpu.data        40541                      
system.cpu.dcache.overall_hits::total           40541                      
system.cpu.dcache.ReadReq_misses::cpu.data          463                      
system.cpu.dcache.ReadReq_misses::total           463                      
system.cpu.dcache.WriteReq_misses::cpu.data         1262                      
system.cpu.dcache.WriteReq_misses::total         1262                      
system.cpu.dcache.LoadLockedReq_misses::cpu.data            3                      
system.cpu.dcache.LoadLockedReq_misses::total            3                      
system.cpu.dcache.demand_misses::cpu.data         1725                      
system.cpu.dcache.demand_misses::total           1725                      
system.cpu.dcache.overall_misses::cpu.data         1725                      
system.cpu.dcache.overall_misses::total          1725                      
system.cpu.dcache.ReadReq_miss_latency::cpu.data     36943000                      
system.cpu.dcache.ReadReq_miss_latency::total     36943000                      
system.cpu.dcache.WriteReq_miss_latency::cpu.data     86694966                      
system.cpu.dcache.WriteReq_miss_latency::total     86694966                      
system.cpu.dcache.LoadLockedReq_miss_latency::cpu.data       287000                      
system.cpu.dcache.LoadLockedReq_miss_latency::total       287000                      
system.cpu.dcache.demand_miss_latency::cpu.data    123637966                      
system.cpu.dcache.demand_miss_latency::total    123637966                      
system.cpu.dcache.overall_miss_latency::cpu.data    123637966                      
system.cpu.dcache.overall_miss_latency::total    123637966                      
system.cpu.dcache.ReadReq_accesses::cpu.data        26162                      
system.cpu.dcache.ReadReq_accesses::total        26162                      
system.cpu.dcache.WriteReq_accesses::cpu.data        16104                      
system.cpu.dcache.WriteReq_accesses::total        16104                      
system.cpu.dcache.LoadLockedReq_accesses::cpu.data          242                      
system.cpu.dcache.LoadLockedReq_accesses::total          242                      
system.cpu.dcache.StoreCondReq_accesses::cpu.data          237                      
system.cpu.dcache.StoreCondReq_accesses::total          237                      
system.cpu.dcache.demand_accesses::cpu.data        42266                      
system.cpu.dcache.demand_accesses::total        42266                      
system.cpu.dcache.overall_accesses::cpu.data        42266                      
system.cpu.dcache.overall_accesses::total        42266                      
system.cpu.dcache.ReadReq_miss_rate::cpu.data     0.017697                      
system.cpu.dcache.ReadReq_miss_rate::total     0.017697                      
system.cpu.dcache.WriteReq_miss_rate::cpu.data     0.078366                      
system.cpu.dcache.WriteReq_miss_rate::total     0.078366                      
system.cpu.dcache.LoadLockedReq_miss_rate::cpu.data     0.012397                      
system.cpu.dcache.LoadLockedReq_miss_rate::total     0.012397                      
system.cpu.dcache.demand_miss_rate::cpu.data     0.040813                      
system.cpu.dcache.demand_miss_rate::total     0.040813                      
system.cpu.dcache.overall_miss_rate::cpu.data     0.040813                      
system.cpu.dcache.overall_miss_rate::total     0.040813                      
system.cpu.dcache.ReadReq_avg_miss_latency::cpu.data 79790.496760                      
system.cpu.dcache.ReadReq_avg_miss_latency::total 79790.496760                      
system.cpu.dcache.WriteReq_avg_miss_latency::cpu.data 68696.486529                      
system.cpu.dcache.WriteReq_avg_miss_latency::total 68696.486529                      
system.cpu.dcache.LoadLockedReq_avg_miss_latency::cpu.data 95666.666667                      
system.cpu.dcache.LoadLockedReq_avg_miss_latency::total 95666.666667                      
system.cpu.dcache.demand_avg_miss_latency::cpu.data 71674.183188                      
system.cpu.dcache.demand_avg_miss_latency::total 71674.183188                      
system.cpu.dcache.overall_avg_miss_latency::cpu.data 71674.183188                      
system.cpu.dcache.overall_avg_miss_latency::total 71674.183188                      
system.cpu.dcache.blocked_cycles::no_mshrs         3337                      
system.cpu.dcache.blocked_cycles::no_targets          167                      
system.cpu.dcache.blocked::no_mshrs                51                      
system.cpu.dcache.blocked::no_targets               2                      
system.cpu.dcache.avg_blocked_cycles::no_mshrs    65.431373                      
system.cpu.dcache.avg_blocked_cycles::no_targets    83.500000                      
system.cpu.dcache.ReadReq_mshr_hits::cpu.data          223                      
system.cpu.dcache.ReadReq_mshr_hits::total          223                      
system.cpu.dcache.WriteReq_mshr_hits::cpu.data         1042                      
system.cpu.dcache.WriteReq_mshr_hits::total         1042                      
system.cpu.dcache.LoadLockedReq_mshr_hits::cpu.data            1                      
system.cpu.dcache.LoadLockedReq_mshr_hits::total            1                      
system.cpu.dcache.demand_mshr_hits::cpu.data         1265                      
system.cpu.dcache.demand_mshr_hits::total         1265                      
system.cpu.dcache.overall_mshr_hits::cpu.data         1265                      
system.cpu.dcache.overall_mshr_hits::total         1265                      
system.cpu.dcache.ReadReq_mshr_misses::cpu.data          240                      
system.cpu.dcache.ReadReq_mshr_misses::total          240                      
system.cpu.dcache.WriteReq_mshr_misses::cpu.data          220                      
system.cpu.dcache.WriteReq_mshr_misses::total          220                      
system.cpu.dcache.LoadLockedReq_mshr_misses::cpu.data            2                      
system.cpu.dcache.LoadLockedReq_mshr_misses::total            2                      
system.cpu.dcache.demand_mshr_misses::cpu.data          460                      
system.cpu.dcache.demand_mshr_misses::total          460                      
system.cpu.dcache.overall_mshr_misses::cpu.data          460                      
system.cpu.dcache.overall_mshr_misses::total          460                      
system.cpu.dcache.ReadReq_mshr_miss_latency::cpu.data     21453500                      
system.cpu.dcache.ReadReq_mshr_miss_latency::total     21453500                      
system.cpu.dcache.WriteReq_mshr_miss_latency::cpu.data     19117497                      
system.cpu.dcache.WriteReq_mshr_miss_latency::total     19117497                      
system.cpu.dcache.LoadLockedReq_mshr_miss_latency::cpu.data       194000                      
system.cpu.dcache.LoadLockedReq_mshr_miss_latency::total       194000                      
system.cpu.dcache.demand_mshr_miss_latency::cpu.data     40570997                      
system.cpu.dcache.demand_mshr_miss_latency::total     40570997                      
system.cpu.dcache.overall_mshr_miss_latency::cpu.data     40570997                      
system.cpu.dcache.overall_mshr_miss_latency::total     40570997                      
system.cpu.dcache.ReadReq_mshr_miss_rate::cpu.data     0.009174                      
system.cpu.dcache.ReadReq_mshr_miss_rate::total     0.009174                      
system.cpu.dcache.WriteReq_mshr_miss_rate::cpu.data     0.013661                      
system.cpu.dcache.WriteReq_mshr_miss_rate::total     0.013661                      
system.cpu.dcache.LoadLockedReq_mshr_miss_rate::cpu.data     0.008264                      
system.cpu.dcache.LoadLockedReq_mshr_miss_rate::total     0.008264                      
system.cpu.dcache.demand_mshr_miss_rate::cpu.data     0.010883                      
system.cpu.dcache.demand_mshr_miss_rate::total     0.010883                      
system.cpu.dcache.overall_mshr_miss_rate::cpu.data     0.010883                      
system.cpu.dcache.overall_mshr_miss_rate::total     0.010883                      
system.cpu.dcache.ReadReq_avg_mshr_miss_latency::cpu.data 89389.583333                      
system.cpu.dcache.ReadReq_avg_mshr_miss_latency::total 89389.583333                      
system.cpu.dcache.WriteReq_avg_mshr_miss_latency::cpu.data 86897.713636                      
system.cpu.dcache.WriteReq_avg_mshr_miss_latency::total 86897.713636                      
system.cpu.dcache.LoadLockedReq_avg_mshr_miss_latency::cpu.data        97000                      
system.cpu.dcache.LoadLockedReq_avg_mshr_miss_latency::total        97000                      
system.cpu.dcache.demand_avg_mshr_miss_latency::cpu.data 88197.819565                      
system.cpu.dcache.demand_avg_mshr_miss_latency::total 88197.819565                      
system.cpu.dcache.overall_avg_mshr_miss_latency::cpu.data 88197.819565                      
system.cpu.dcache.overall_avg_mshr_miss_latency::total 88197.819565                      
system.cpu.icache.tags.pwrStateResidencyTicks::UNDEFINED    116492500                      
system.cpu.icache.tags.replacements                57                      
system.cpu.icache.tags.tagsinuse           470.887751                      
system.cpu.icache.tags.total_refs               22187                      
system.cpu.icache.tags.sampled_refs               827                      
system.cpu.icache.tags.avg_refs             26.828295                      
system.cpu.icache.tags.warmup_cycle             87500                      
system.cpu.icache.tags.occ_blocks::cpu.inst   470.887751                      
system.cpu.icache.tags.occ_percent::cpu.inst     0.229926                      
system.cpu.icache.tags.occ_percent::total     0.229926                      
system.cpu.icache.tags.occ_task_id_blocks::1024          770                      
system.cpu.icache.tags.age_task_id_blocks_1024::0           54                      
system.cpu.icache.tags.age_task_id_blocks_1024::1          522                      
system.cpu.icache.tags.age_task_id_blocks_1024::2          194                      
system.cpu.icache.tags.occ_task_id_percent::1024     0.375977                      
system.cpu.icache.tags.tag_accesses             47159                      
system.cpu.icache.tags.data_accesses            47159                      
system.cpu.icache.pwrStateResidencyTicks::UNDEFINED    116492500                      
system.cpu.icache.ReadReq_hits::cpu.inst        22187                      
system.cpu.icache.ReadReq_hits::total           22187                      
system.cpu.icache.demand_hits::cpu.inst         22187                      
system.cpu.icache.demand_hits::total            22187                      
system.cpu.icache.overall_hits::cpu.inst        22187                      
system.cpu.icache.overall_hits::total           22187                      
system.cpu.icache.ReadReq_misses::cpu.inst          979                      
system.cpu.icache.ReadReq_misses::total           979                      
system.cpu.icache.demand_misses::cpu.inst          979                      
system.cpu.icache.demand_misses::total            979                      
system.cpu.icache.overall_misses::cpu.inst          979                      
system.cpu.icache.overall_misses::total           979                      
system.cpu.icache.ReadReq_miss_latency::cpu.inst     81836998                      
system.cpu.icache.ReadReq_miss_latency::total     81836998                      
system.cpu.icache.demand_miss_latency::cpu.inst     81836998                      
system.cpu.icache.demand_miss_latency::total     81836998                      
system.cpu.icache.overall_miss_latency::cpu.inst     81836998                      
system.cpu.icache.overall_miss_latency::total     81836998                      
system.cpu.icache.ReadReq_accesses::cpu.inst        23166                      
system.cpu.icache.ReadReq_accesses::total        23166                      
system.cpu.icache.demand_accesses::cpu.inst        23166                      
system.cpu.icache.demand_accesses::total        23166                      
system.cpu.icache.overall_accesses::cpu.inst        23166                      
system.cpu.icache.overall_accesses::total        23166                      
system.cpu.icache.ReadReq_miss_rate::cpu.inst     0.042260                      
system.cpu.icache.ReadReq_miss_rate::total     0.042260                      
system.cpu.icache.demand_miss_rate::cpu.inst     0.042260                      
system.cpu.icache.demand_miss_rate::total     0.042260                      
system.cpu.icache.overall_miss_rate::cpu.inst     0.042260                      
system.cpu.icache.overall_miss_rate::total     0.042260                      
system.cpu.icache.ReadReq_avg_miss_latency::cpu.inst 83592.439224                      
system.cpu.icache.ReadReq_avg_miss_latency::total 83592.439224                      
system.cpu.icache.demand_avg_miss_latency::cpu.inst 83592.439224                      
system.cpu.icache.demand_avg_miss_latency::total 83592.439224                      
system.cpu.icache.overall_avg_miss_latency::cpu.inst 83592.439224                      
system.cpu.icache.overall_avg_miss_latency::total 83592.439224                      
system.cpu.icache.blocked_cycles::no_mshrs          676                      
system.cpu.icache.blocked_cycles::no_targets            0                      
system.cpu.icache.blocked::no_mshrs                11                      
system.cpu.icache.blocked::no_targets               0                      
system.cpu.icache.avg_blocked_cycles::no_mshrs    61.454545                      
system.cpu.icache.avg_blocked_cycles::no_targets          nan                      
system.cpu.icache.writebacks::writebacks           57                      
system.cpu.icache.writebacks::total                57                      
system.cpu.icache.ReadReq_mshr_hits::cpu.inst          151                      
system.cpu.icache.ReadReq_mshr_hits::total          151                      
system.cpu.icache.demand_mshr_hits::cpu.inst          151                      
system.cpu.icache.demand_mshr_hits::total          151                      
system.cpu.icache.overall_mshr_hits::cpu.inst          151                      
system.cpu.icache.overall_mshr_hits::total          151                      
system.cpu.icache.ReadReq_mshr_misses::cpu.inst          828                      
system.cpu.icache.ReadReq_mshr_misses::total          828                      
system.cpu.icache.demand_mshr_misses::cpu.inst          828                      
system.cpu.icache.demand_mshr_misses::total          828                      
system.cpu.icache.overall_mshr_misses::cpu.inst          828                      
system.cpu.icache.overall_mshr_misses::total          828                      
system.cpu.icache.ReadReq_mshr_miss_latency::cpu.inst     71277499                      
system.cpu.icache.ReadReq_mshr_miss_latency::total     71277499                      
system.cpu.icache.demand_mshr_miss_latency::cpu.inst     71277499                      
system.cpu.icache.demand_mshr_miss_latency::total     71277499                      
system.cpu.icache.overall_mshr_miss_latency::cpu.inst     71277499                      
system.cpu.icache.overall_mshr_miss_latency::total     71277499                      
system.cpu.icache.ReadReq_mshr_miss_rate::cpu.inst     0.035742                      
system.cpu.icache.ReadReq_mshr_miss_rate::total     0.035742                      
system.cpu.icache.demand_mshr_miss_rate::cpu.inst     0.035742                      
system.cpu.icache.demand_mshr_miss_rate::total     0.035742                      
system.cpu.icache.overall_mshr_miss_rate::cpu.inst     0.035742                      
system.cpu.icache.overall_mshr_miss_rate::total     0.035742                      
system.cpu.icache.ReadReq_avg_mshr_miss_latency::cpu.inst 86083.935990                      
system.cpu.icache.ReadReq_avg_mshr_miss_latency::total 86083.935990                      
system.cpu.icache.demand_avg_mshr_miss_latency::cpu.inst 86083.935990                      
system.cpu.icache.demand_avg_mshr_miss_latency::total 86083.935990                      
system.cpu.icache.overall_avg_mshr_miss_latency::cpu.inst 86083.935990                      
system.cpu.icache.overall_avg_mshr_miss_latency::total 86083.935990                      
system.cpu.l2cache.tags.pwrStateResidencyTicks::UNDEFINED    116492500                      
system.cpu.l2cache.tags.replacements                0                      
system.cpu.l2cache.tags.tagsinuse          812.487731                      
system.cpu.l2cache.tags.total_refs                 65                      
system.cpu.l2cache.tags.sampled_refs             1281                      
system.cpu.l2cache.tags.avg_refs             0.050742                      
system.cpu.l2cache.tags.warmup_cycle            77000                      
system.cpu.l2cache.tags.occ_blocks::cpu.inst   490.996908                      
system.cpu.l2cache.tags.occ_blocks::cpu.data   321.490822                      
system.cpu.l2cache.tags.occ_percent::cpu.inst     0.014984                      
system.cpu.l2cache.tags.occ_percent::cpu.data     0.009811                      
system.cpu.l2cache.tags.occ_percent::total     0.024795                      
system.cpu.l2cache.tags.occ_task_id_blocks::1024         1281                      
system.cpu.l2cache.tags.age_task_id_blocks_1024::0           67                      
system.cpu.l2cache.tags.age_task_id_blocks_1024::1          830                      
system.cpu.l2cache.tags.age_task_id_blocks_1024::2          384                      
system.cpu.l2cache.tags.occ_task_id_percent::1024     0.039093                      
system.cpu.l2cache.tags.tag_accesses            12057                      
system.cpu.l2cache.tags.data_accesses           12057                      
system.cpu.l2cache.pwrStateResidencyTicks::UNDEFINED    116492500                      
system.cpu.l2cache.WritebackClean_hits::writebacks           57                      
system.cpu.l2cache.WritebackClean_hits::total           57                      
system.cpu.l2cache.ReadCleanReq_hits::cpu.inst            7                      
system.cpu.l2cache.ReadCleanReq_hits::total            7                      
system.cpu.l2cache.ReadSharedReq_hits::cpu.data            1                      
system.cpu.l2cache.ReadSharedReq_hits::total            1                      
system.cpu.l2cache.demand_hits::cpu.inst            7                      
system.cpu.l2cache.demand_hits::cpu.data            1                      
system.cpu.l2cache.demand_hits::total               8                      
system.cpu.l2cache.overall_hits::cpu.inst            7                      
system.cpu.l2cache.overall_hits::cpu.data            1                      
system.cpu.l2cache.overall_hits::total              8                      
system.cpu.l2cache.ReadExReq_misses::cpu.data          220                      
system.cpu.l2cache.ReadExReq_misses::total          220                      
system.cpu.l2cache.ReadCleanReq_misses::cpu.inst          821                      
system.cpu.l2cache.ReadCleanReq_misses::total          821                      
system.cpu.l2cache.ReadSharedReq_misses::cpu.data          241                      
system.cpu.l2cache.ReadSharedReq_misses::total          241                      
system.cpu.l2cache.demand_misses::cpu.inst          821                      
system.cpu.l2cache.demand_misses::cpu.data          461                      
system.cpu.l2cache.demand_misses::total          1282                      
system.cpu.l2cache.overall_misses::cpu.inst          821                      
system.cpu.l2cache.overall_misses::cpu.data          461                      
system.cpu.l2cache.overall_misses::total         1282                      
system.cpu.l2cache.ReadExReq_miss_latency::cpu.data     18780000                      
system.cpu.l2cache.ReadExReq_miss_latency::total     18780000                      
system.cpu.l2cache.ReadCleanReq_miss_latency::cpu.inst     69957500                      
system.cpu.l2cache.ReadCleanReq_miss_latency::total     69957500                      
system.cpu.l2cache.ReadSharedReq_miss_latency::cpu.data     21268000                      
system.cpu.l2cache.ReadSharedReq_miss_latency::total     21268000                      
system.cpu.l2cache.demand_miss_latency::cpu.inst     69957500                      
system.cpu.l2cache.demand_miss_latency::cpu.data     40048000                      
system.cpu.l2cache.demand_miss_latency::total    110005500                      
system.cpu.l2cache.overall_miss_latency::cpu.inst     69957500                      
system.cpu.l2cache.overall_miss_latency::cpu.data     40048000                      
system.cpu.l2cache.overall_miss_latency::total    110005500                      
system.cpu.l2cache.WritebackClean_accesses::writebacks           57                      
system.cpu.l2cache.WritebackClean_accesses::total           57                      
system.cpu.l2cache.ReadExReq_accesses::cpu.data          220                      
system.cpu.l2cache.ReadExReq_accesses::total          220                      
system.cpu.l2cache.ReadCleanReq_accesses::cpu.inst          828                      
system.cpu.l2cache.ReadCleanReq_accesses::total          828                      
system.cpu.l2cache.ReadSharedReq_accesses::cpu.data          242                      
system.cpu.l2cache.ReadSharedReq_accesses::total          242                      
system.cpu.l2cache.demand_accesses::cpu.inst          828                      
system.cpu.l2cache.demand_accesses::cpu.data          462                      
system.cpu.l2cache.demand_accesses::total         1290                      
system.cpu.l2cache.overall_accesses::cpu.inst          828                      
system.cpu.l2cache.overall_accesses::cpu.data          462                      
system.cpu.l2cache.overall_accesses::total         1290                      
system.cpu.l2cache.ReadExReq_miss_rate::cpu.data            1                      
system.cpu.l2cache.ReadExReq_miss_rate::total            1                      
system.cpu.l2cache.ReadCleanReq_miss_rate::cpu.inst     0.991546                      
system.cpu.l2cache.ReadCleanReq_miss_rate::total     0.991546                      
system.cpu.l2cache.ReadSharedReq_miss_rate::cpu.data     0.995868                      
system.cpu.l2cache.ReadSharedReq_miss_rate::total     0.995868                      
system.cpu.l2cache.demand_miss_rate::cpu.inst     0.991546                      
system.cpu.l2cache.demand_miss_rate::cpu.data     0.997835                      
system.cpu.l2cache.demand_miss_rate::total     0.993798                      
system.cpu.l2cache.overall_miss_rate::cpu.inst     0.991546                      
system.cpu.l2cache.overall_miss_rate::cpu.data     0.997835                      
system.cpu.l2cache.overall_miss_rate::total     0.993798                      
system.cpu.l2cache.ReadExReq_avg_miss_latency::cpu.data 85363.636364                      
system.cpu.l2cache.ReadExReq_avg_miss_latency::total 85363.636364                      
system.cpu.l2cache.ReadCleanReq_avg_miss_latency::cpu.inst 85210.109622                      
system.cpu.l2cache.ReadCleanReq_avg_miss_latency::total 85210.109622                      
system.cpu.l2cache.ReadSharedReq_avg_miss_latency::cpu.data 88248.962656                      
system.cpu.l2cache.ReadSharedReq_avg_miss_latency::total 88248.962656                      
system.cpu.l2cache.demand_avg_miss_latency::cpu.inst 85210.109622                      
system.cpu.l2cache.demand_avg_miss_latency::cpu.data 86872.017354                      
system.cpu.l2cache.demand_avg_miss_latency::total 85807.722309                      
system.cpu.l2cache.overall_avg_miss_latency::cpu.inst 85210.109622                      
system.cpu.l2cache.overall_avg_miss_latency::cpu.data 86872.017354                      
system.cpu.l2cache.overall_avg_miss_latency::total 85807.722309                      
system.cpu.l2cache.blocked_cycles::no_mshrs            0                      
system.cpu.l2cache.blocked_cycles::no_targets            0                      
system.cpu.l2cache.blocked::no_mshrs                0                      
system.cpu.l2cache.blocked::no_targets              0                      
system.cpu.l2cache.avg_blocked_cycles::no_mshrs          nan                      
system.cpu.l2cache.avg_blocked_cycles::no_targets          nan                      
system.cpu.l2cache.ReadExReq_mshr_misses::cpu.data          220                      
system.cpu.l2cache.ReadExReq_mshr_misses::total          220                      
system.cpu.l2cache.ReadCleanReq_mshr_misses::cpu.inst          821                      
system.cpu.l2cache.ReadCleanReq_mshr_misses::total          821                      
system.cpu.l2cache.ReadSharedReq_mshr_misses::cpu.data          241                      
system.cpu.l2cache.ReadSharedReq_mshr_misses::total          241                      
system.cpu.l2cache.demand_mshr_misses::cpu.inst          821                      
system.cpu.l2cache.demand_mshr_misses::cpu.data          461                      
system.cpu.l2cache.demand_mshr_misses::total         1282                      
system.cpu.l2cache.overall_mshr_misses::cpu.inst          821                      
system.cpu.l2cache.overall_mshr_misses::cpu.data          461                      
system.cpu.l2cache.overall_mshr_misses::total         1282                      
system.cpu.l2cache.ReadExReq_mshr_miss_latency::cpu.data     16580000                      
system.cpu.l2cache.ReadExReq_mshr_miss_latency::total     16580000                      
system.cpu.l2cache.ReadCleanReq_mshr_miss_latency::cpu.inst     61757500                      
system.cpu.l2cache.ReadCleanReq_mshr_miss_latency::total     61757500                      
system.cpu.l2cache.ReadSharedReq_mshr_miss_latency::cpu.data     18858000                      
system.cpu.l2cache.ReadSharedReq_mshr_miss_latency::total     18858000                      
system.cpu.l2cache.demand_mshr_miss_latency::cpu.inst     61757500                      
system.cpu.l2cache.demand_mshr_miss_latency::cpu.data     35438000                      
system.cpu.l2cache.demand_mshr_miss_latency::total     97195500                      
system.cpu.l2cache.overall_mshr_miss_latency::cpu.inst     61757500                      
system.cpu.l2cache.overall_mshr_miss_latency::cpu.data     35438000                      
system.cpu.l2cache.overall_mshr_miss_latency::total     97195500                      
system.cpu.l2cache.ReadExReq_mshr_miss_rate::cpu.data            1                      
system.cpu.l2cache.ReadExReq_mshr_miss_rate::total            1                      
system.cpu.l2cache.ReadCleanReq_mshr_miss_rate::cpu.inst     0.991546                      
system.cpu.l2cache.ReadCleanReq_mshr_miss_rate::total     0.991546                      
system.cpu.l2cache.ReadSharedReq_mshr_miss_rate::cpu.data     0.995868                      
system.cpu.l2cache.ReadSharedReq_mshr_miss_rate::total     0.995868                      
system.cpu.l2cache.demand_mshr_miss_rate::cpu.inst     0.991546                      
system.cpu.l2cache.demand_mshr_miss_rate::cpu.data     0.997835                      
system.cpu.l2cache.demand_mshr_miss_rate::total     0.993798                      
system.cpu.l2cache.overall_mshr_miss_rate::cpu.inst     0.991546                      
system.cpu.l2cache.overall_mshr_miss_rate::cpu.data     0.997835                      
system.cpu.l2cache.overall_mshr_miss_rate::total     0.993798                      
system.cpu.l2cache.ReadExReq_avg_mshr_miss_latency::cpu.data 75363.636364                      
system.cpu.l2cache.ReadExReq_avg_mshr_miss_latency::total 75363.636364                      
system.cpu.l2cache.ReadCleanReq_avg_mshr_miss_latency::cpu.inst 75222.289890                      
system.cpu.l2cache.ReadCleanReq_avg_mshr_miss_latency::total 75222.289890                      
system.cpu.l2cache.ReadSharedReq_avg_mshr_miss_latency::cpu.data 78248.962656                      
system.cpu.l2cache.ReadSharedReq_avg_mshr_miss_latency::total 78248.962656                      
system.cpu.l2cache.demand_avg_mshr_miss_latency::cpu.inst 75222.289890                      
system.cpu.l2cache.demand_avg_mshr_miss_latency::cpu.data 76872.017354                      
system.cpu.l2cache.demand_avg_mshr_miss_latency::total 75815.522621                      
system.cpu.l2cache.overall_avg_mshr_miss_latency::cpu.inst 75222.289890                      
system.cpu.l2cache.overall_avg_mshr_miss_latency::cpu.data 76872.017354                      
system.cpu.l2cache.overall_avg_mshr_miss_latency::total 75815.522621                      
system.cpu.toL2Bus.snoop_filter.tot_requests         1347                      
system.cpu.toL2Bus.snoop_filter.hit_single_requests           58                      
system.cpu.toL2Bus.snoop_filter.hit_multi_requests            0                      
system.cpu.toL2Bus.snoop_filter.tot_snoops            0                      
system.cpu.toL2Bus.snoop_filter.hit_single_snoops            0                      
system.cpu.toL2Bus.snoop_filter.hit_multi_snoops            0                      
system.cpu.toL2Bus.pwrStateResidencyTicks::UNDEFINED    116492500                      
system.cpu.toL2Bus.trans_dist::ReadResp          1069                      
system.cpu.toL2Bus.trans_dist::WritebackClean           57                      
system.cpu.toL2Bus.trans_dist::ReadExReq          220                      
system.cpu.toL2Bus.trans_dist::ReadExResp          220                      
system.cpu.toL2Bus.trans_dist::ReadCleanReq          828                      
system.cpu.toL2Bus.trans_dist::ReadSharedReq          242                      
system.cpu.toL2Bus.pkt_count_system.cpu.icache.mem_side::system.cpu.l2cache.cpu_side         1712                      
system.cpu.toL2Bus.pkt_count_system.cpu.dcache.mem_side::system.cpu.l2cache.cpu_side          924                      
system.cpu.toL2Bus.pkt_count::total              2636                      
system.cpu.toL2Bus.pkt_size_system.cpu.icache.mem_side::system.cpu.l2cache.cpu_side        56576                      
system.cpu.toL2Bus.pkt_size_system.cpu.dcache.mem_side::system.cpu.l2cache.cpu_side        29568                      
system.cpu.toL2Bus.pkt_size::total              86144                      
system.cpu.toL2Bus.snoops                           0                      
system.cpu.toL2Bus.snoopTraffic                     0                      
system.cpu.toL2Bus.snoop_fanout::samples         1290                      
system.cpu.toL2Bus.snoop_fanout::mean        0.000775                      
system.cpu.toL2Bus.snoop_fanout::stdev       0.027842                      
system.cpu.toL2Bus.snoop_fanout::underflows            0      0.00%      0.00%
system.cpu.toL2Bus.snoop_fanout::0               1289     99.92%     99.92%
system.cpu.toL2Bus.snoop_fanout::1                  1      0.08%    100.00%
system.cpu.toL2Bus.snoop_fanout::2                  0      0.00%    100.00%
system.cpu.toL2Bus.snoop_fanout::overflows            0      0.00%    100.00%
system.cpu.toL2Bus.snoop_fanout::min_value            0                      
system.cpu.toL2Bus.snoop_fanout::max_value            1                      
system.cpu.toL2Bus.snoop_fanout::total           1290                      
system.cpu.toL2Bus.reqLayer0.occupancy         730500                      
system.cpu.toL2Bus.reqLayer0.utilization          0.6                      
system.cpu.toL2Bus.respLayer0.occupancy       1240500                      
system.cpu.toL2Bus.respLayer0.utilization          1.1                      
system.cpu.toL2Bus.respLayer1.occupancy        693000                      
system.cpu.toL2Bus.respLayer1.utilization          0.6                      
system.membus.snoop_filter.tot_requests          1282                      
system.membus.snoop_filter.hit_single_requests            0                      
system.membus.snoop_filter.hit_multi_requests            0                      
system.membus.snoop_filter.tot_snoops               0                      
system.membus.snoop_filter.hit_single_snoops            0                      
system.membus.snoop_filter.hit_multi_snoops            0                      
system.membus.pwrStateResidencyTicks::UNDEFINED    116492500                      
system.membus.trans_dist::ReadResp               1061                      
system.membus.trans_dist::ReadExReq               220                      
system.membus.trans_dist::ReadExResp              220                      
system.membus.trans_dist::ReadSharedReq          1062                      
system.membus.pkt_count_system.cpu.l2cache.mem_side::system.physmem.port         2563                      
system.membus.pkt_count::total                   2563                      
system.membus.pkt_size_system.cpu.l2cache.mem_side::system.physmem.port        81984                      
system.membus.pkt_size::total                   81984                      
system.membus.snoops                                0                      
system.membus.snoopTraffic                          0                      
system.membus.snoop_fanout::samples              1282                      
system.membus.snoop_fanout::mean                    0                      
system.membus.snoop_fanout::stdev                   0                      
system.membus.snoop_fanout::underflows              0      0.00%      0.00%
system.membus.snoop_fanout::0                    1282    100.00%    100.00%
system.membus.snoop_fanout::1                       0      0.00%    100.00%
system.membus.snoop_fanout::overflows               0      0.00%    100.00%
system.membus.snoop_fanout::min_value               0                      
system.membus.snoop_fanout::max_value               0                      
system.membus.snoop_fanout::total                1282                      
system.membus.reqLayer0.occupancy             1565000                      
system.membus.reqLayer0.utilization               1.3                      
system.membus.respLayer1.occupancy            6794000                      
system.membus.respLayer1.utilization              5.8                      

---------- End Simulation Statistics   ----------
