
---------- Begin Simulation Statistics ----------
sim_seconds                                  0.001840                      
sim_ticks                                     1839943                      
final_tick                                    1839943                      
sim_freq                                   1000000000                      
host_inst_rate                                  46812                      
host_op_rate                                    46916                      
host_tick_rate                                 786761                      
host_mem_usage                                 569400                      
host_seconds                                     2.34                      
sim_insts                                      109472                      
sim_ops                                        109717                      
system.voltage_domain.voltage                       1                      
system.clk_domain.clock                             1                      
system.mem_ctrls.pwrStateResidencyTicks::UNDEFINED      1839943                      
system.mem_ctrls.bytes_read::ruby.dir_cntrl0      1789824                      
system.mem_ctrls.bytes_read::total            1789824                      
system.mem_ctrls.bytes_written::ruby.dir_cntrl0      1789568                      
system.mem_ctrls.bytes_written::total         1789568                      
system.mem_ctrls.num_reads::ruby.dir_cntrl0        27966                      
system.mem_ctrls.num_reads::total               27966                      
system.mem_ctrls.num_writes::ruby.dir_cntrl0        27962                      
system.mem_ctrls.num_writes::total              27962                      
system.mem_ctrls.bw_read::ruby.dir_cntrl0    972760569                      
system.mem_ctrls.bw_read::total             972760569                      
system.mem_ctrls.bw_write::ruby.dir_cntrl0    972621434                      
system.mem_ctrls.bw_write::total            972621434                      
system.mem_ctrls.bw_total::ruby.dir_cntrl0   1945382004                      
system.mem_ctrls.bw_total::total           1945382004                      
system.mem_ctrls.readReqs                       27966                      
system.mem_ctrls.writeReqs                      27962                      
system.mem_ctrls.readBursts                     27966                      
system.mem_ctrls.writeBursts                    27962                      
system.mem_ctrls.bytesReadDRAM                 800896                      
system.mem_ctrls.bytesReadWrQ                  988928                      
system.mem_ctrls.bytesWritten                  842112                      
system.mem_ctrls.bytesReadSys                 1789824                      
system.mem_ctrls.bytesWrittenSys              1789568                      
system.mem_ctrls.servicedByWrQ                  15452                      
system.mem_ctrls.mergedWrBursts                 14776                      
system.mem_ctrls.neitherReadNorWriteReqs            0                      
system.mem_ctrls.perBankRdBursts::0               680                      
system.mem_ctrls.perBankRdBursts::1               574                      
system.mem_ctrls.perBankRdBursts::2               918                      
system.mem_ctrls.perBankRdBursts::3              1127                      
system.mem_ctrls.perBankRdBursts::4                29                      
system.mem_ctrls.perBankRdBursts::5               143                      
system.mem_ctrls.perBankRdBursts::6               222                      
system.mem_ctrls.perBankRdBursts::7               259                      
system.mem_ctrls.perBankRdBursts::8               475                      
system.mem_ctrls.perBankRdBursts::9              1428                      
system.mem_ctrls.perBankRdBursts::10             1389                      
system.mem_ctrls.perBankRdBursts::11             1316                      
system.mem_ctrls.perBankRdBursts::12              953                      
system.mem_ctrls.perBankRdBursts::13             1763                      
system.mem_ctrls.perBankRdBursts::14             1099                      
system.mem_ctrls.perBankRdBursts::15              139                      
system.mem_ctrls.perBankWrBursts::0               704                      
system.mem_ctrls.perBankWrBursts::1               582                      
system.mem_ctrls.perBankWrBursts::2               948                      
system.mem_ctrls.perBankWrBursts::3              1208                      
system.mem_ctrls.perBankWrBursts::4                31                      
system.mem_ctrls.perBankWrBursts::5               148                      
system.mem_ctrls.perBankWrBursts::6               223                      
system.mem_ctrls.perBankWrBursts::7               267                      
system.mem_ctrls.perBankWrBursts::8               504                      
system.mem_ctrls.perBankWrBursts::9              1539                      
system.mem_ctrls.perBankWrBursts::10             1408                      
system.mem_ctrls.perBankWrBursts::11             1368                      
system.mem_ctrls.perBankWrBursts::12             1006                      
system.mem_ctrls.perBankWrBursts::13             1961                      
system.mem_ctrls.perBankWrBursts::14             1129                      
system.mem_ctrls.perBankWrBursts::15              132                      
system.mem_ctrls.numRdRetry                         0                      
system.mem_ctrls.numWrRetry                         0                      
system.mem_ctrls.totGap                       1839863                      
system.mem_ctrls.readPktSize::0                     0                      
system.mem_ctrls.readPktSize::1                     0                      
system.mem_ctrls.readPktSize::2                     0                      
system.mem_ctrls.readPktSize::3                     0                      
system.mem_ctrls.readPktSize::4                     0                      
system.mem_ctrls.readPktSize::5                     0                      
system.mem_ctrls.readPktSize::6                 27966                      
system.mem_ctrls.writePktSize::0                    0                      
system.mem_ctrls.writePktSize::1                    0                      
system.mem_ctrls.writePktSize::2                    0                      
system.mem_ctrls.writePktSize::3                    0                      
system.mem_ctrls.writePktSize::4                    0                      
system.mem_ctrls.writePktSize::5                    0                      
system.mem_ctrls.writePktSize::6                27962                      
system.mem_ctrls.rdQLenPdf::0                   12514                      
system.mem_ctrls.rdQLenPdf::1                       0                      
system.mem_ctrls.rdQLenPdf::2                       0                      
system.mem_ctrls.rdQLenPdf::3                       0                      
system.mem_ctrls.rdQLenPdf::4                       0                      
system.mem_ctrls.rdQLenPdf::5                       0                      
system.mem_ctrls.rdQLenPdf::6                       0                      
system.mem_ctrls.rdQLenPdf::7                       0                      
system.mem_ctrls.rdQLenPdf::8                       0                      
system.mem_ctrls.rdQLenPdf::9                       0                      
system.mem_ctrls.rdQLenPdf::10                      0                      
system.mem_ctrls.rdQLenPdf::11                      0                      
system.mem_ctrls.rdQLenPdf::12                      0                      
system.mem_ctrls.rdQLenPdf::13                      0                      
system.mem_ctrls.rdQLenPdf::14                      0                      
system.mem_ctrls.rdQLenPdf::15                      0                      
system.mem_ctrls.rdQLenPdf::16                      0                      
system.mem_ctrls.rdQLenPdf::17                      0                      
system.mem_ctrls.rdQLenPdf::18                      0                      
system.mem_ctrls.rdQLenPdf::19                      0                      
system.mem_ctrls.rdQLenPdf::20                      0                      
system.mem_ctrls.rdQLenPdf::21                      0                      
system.mem_ctrls.rdQLenPdf::22                      0                      
system.mem_ctrls.rdQLenPdf::23                      0                      
system.mem_ctrls.rdQLenPdf::24                      0                      
system.mem_ctrls.rdQLenPdf::25                      0                      
system.mem_ctrls.rdQLenPdf::26                      0                      
system.mem_ctrls.rdQLenPdf::27                      0                      
system.mem_ctrls.rdQLenPdf::28                      0                      
system.mem_ctrls.rdQLenPdf::29                      0                      
system.mem_ctrls.rdQLenPdf::30                      0                      
system.mem_ctrls.rdQLenPdf::31                      0                      
system.mem_ctrls.wrQLenPdf::0                       1                      
system.mem_ctrls.wrQLenPdf::1                       1                      
system.mem_ctrls.wrQLenPdf::2                       1                      
system.mem_ctrls.wrQLenPdf::3                       1                      
system.mem_ctrls.wrQLenPdf::4                       1                      
system.mem_ctrls.wrQLenPdf::5                       1                      
system.mem_ctrls.wrQLenPdf::6                       1                      
system.mem_ctrls.wrQLenPdf::7                       1                      
system.mem_ctrls.wrQLenPdf::8                       1                      
system.mem_ctrls.wrQLenPdf::9                       1                      
system.mem_ctrls.wrQLenPdf::10                      1                      
system.mem_ctrls.wrQLenPdf::11                      1                      
system.mem_ctrls.wrQLenPdf::12                      1                      
system.mem_ctrls.wrQLenPdf::13                      1                      
system.mem_ctrls.wrQLenPdf::14                      1                      
system.mem_ctrls.wrQLenPdf::15                    118                      
system.mem_ctrls.wrQLenPdf::16                    130                      
system.mem_ctrls.wrQLenPdf::17                    685                      
system.mem_ctrls.wrQLenPdf::18                    809                      
system.mem_ctrls.wrQLenPdf::19                    823                      
system.mem_ctrls.wrQLenPdf::20                    867                      
system.mem_ctrls.wrQLenPdf::21                    866                      
system.mem_ctrls.wrQLenPdf::22                    832                      
system.mem_ctrls.wrQLenPdf::23                    806                      
system.mem_ctrls.wrQLenPdf::24                    804                      
system.mem_ctrls.wrQLenPdf::25                    805                      
system.mem_ctrls.wrQLenPdf::26                    806                      
system.mem_ctrls.wrQLenPdf::27                    804                      
system.mem_ctrls.wrQLenPdf::28                    803                      
system.mem_ctrls.wrQLenPdf::29                    803                      
system.mem_ctrls.wrQLenPdf::30                    804                      
system.mem_ctrls.wrQLenPdf::31                    803                      
system.mem_ctrls.wrQLenPdf::32                    803                      
system.mem_ctrls.wrQLenPdf::33                      0                      
system.mem_ctrls.wrQLenPdf::34                      0                      
system.mem_ctrls.wrQLenPdf::35                      0                      
system.mem_ctrls.wrQLenPdf::36                      0                      
system.mem_ctrls.wrQLenPdf::37                      0                      
system.mem_ctrls.wrQLenPdf::38                      0                      
system.mem_ctrls.wrQLenPdf::39                      0                      
system.mem_ctrls.wrQLenPdf::40                      0                      
system.mem_ctrls.wrQLenPdf::41                      0                      
system.mem_ctrls.wrQLenPdf::42                      0                      
system.mem_ctrls.wrQLenPdf::43                      0                      
system.mem_ctrls.wrQLenPdf::44                      0                      
system.mem_ctrls.wrQLenPdf::45                      0                      
system.mem_ctrls.wrQLenPdf::46                      0                      
system.mem_ctrls.wrQLenPdf::47                      0                      
system.mem_ctrls.wrQLenPdf::48                      0                      
system.mem_ctrls.wrQLenPdf::49                      0                      
system.mem_ctrls.wrQLenPdf::50                      0                      
system.mem_ctrls.wrQLenPdf::51                      0                      
system.mem_ctrls.wrQLenPdf::52                      0                      
system.mem_ctrls.wrQLenPdf::53                      0                      
system.mem_ctrls.wrQLenPdf::54                      0                      
system.mem_ctrls.wrQLenPdf::55                      0                      
system.mem_ctrls.wrQLenPdf::56                      0                      
system.mem_ctrls.wrQLenPdf::57                      0                      
system.mem_ctrls.wrQLenPdf::58                      0                      
system.mem_ctrls.wrQLenPdf::59                      0                      
system.mem_ctrls.wrQLenPdf::60                      0                      
system.mem_ctrls.wrQLenPdf::61                      0                      
system.mem_ctrls.wrQLenPdf::62                      0                      
system.mem_ctrls.wrQLenPdf::63                      0                      
system.mem_ctrls.bytesPerActivate::samples         5350                      
system.mem_ctrls.bytesPerActivate::mean    306.661682                      
system.mem_ctrls.bytesPerActivate::gmean   203.979737                      
system.mem_ctrls.bytesPerActivate::stdev   282.948232                      
system.mem_ctrls.bytesPerActivate::0-127         1381     25.81%     25.81%
system.mem_ctrls.bytesPerActivate::128-255         1542     28.82%     54.64%
system.mem_ctrls.bytesPerActivate::256-383          779     14.56%     69.20%
system.mem_ctrls.bytesPerActivate::384-511          491      9.18%     78.37%
system.mem_ctrls.bytesPerActivate::512-639          317      5.93%     84.30%
system.mem_ctrls.bytesPerActivate::640-767          210      3.93%     88.22%
system.mem_ctrls.bytesPerActivate::768-895          183      3.42%     91.64%
system.mem_ctrls.bytesPerActivate::896-1023          133      2.49%     94.13%
system.mem_ctrls.bytesPerActivate::1024-1151          314      5.87%    100.00%
system.mem_ctrls.bytesPerActivate::total         5350                      
system.mem_ctrls.rdPerTurnAround::samples          803                      
system.mem_ctrls.rdPerTurnAround::mean      15.566625                      
system.mem_ctrls.rdPerTurnAround::gmean     15.488531                      
system.mem_ctrls.rdPerTurnAround::stdev      1.625539                      
system.mem_ctrls.rdPerTurnAround::12-13            58      7.22%      7.22%
system.mem_ctrls.rdPerTurnAround::14-15           362     45.08%     52.30%
system.mem_ctrls.rdPerTurnAround::16-17           302     37.61%     89.91%
system.mem_ctrls.rdPerTurnAround::18-19            72      8.97%     98.88%
system.mem_ctrls.rdPerTurnAround::20-21             8      1.00%     99.88%
system.mem_ctrls.rdPerTurnAround::34-35             1      0.12%    100.00%
system.mem_ctrls.rdPerTurnAround::total           803                      
system.mem_ctrls.wrPerTurnAround::samples          803                      
system.mem_ctrls.wrPerTurnAround::mean      16.386052                      
system.mem_ctrls.wrPerTurnAround::gmean     16.362137                      
system.mem_ctrls.wrPerTurnAround::stdev      0.919669                      
system.mem_ctrls.wrPerTurnAround::16              674     83.94%     83.94%
system.mem_ctrls.wrPerTurnAround::17                9      1.12%     85.06%
system.mem_ctrls.wrPerTurnAround::18               61      7.60%     92.65%
system.mem_ctrls.wrPerTurnAround::19               57      7.10%     99.75%
system.mem_ctrls.wrPerTurnAround::20                2      0.25%    100.00%
system.mem_ctrls.wrPerTurnAround::total           803                      
system.mem_ctrls.totQLat                       251785                      
system.mem_ctrls.totMemAccLat                  489551                      
system.mem_ctrls.totBusLat                      62570                      
system.mem_ctrls.avgQLat                        20.12                      
system.mem_ctrls.avgBusLat                       5.00                      
system.mem_ctrls.avgMemAccLat                   39.12                      
system.mem_ctrls.avgRdBW                       435.28                      
system.mem_ctrls.avgWrBW                       457.68                      
system.mem_ctrls.avgRdBWSys                    972.76                      
system.mem_ctrls.avgWrBWSys                    972.62                      
system.mem_ctrls.peakBW                      12800.00                      
system.mem_ctrls.busUtil                         6.98                      
system.mem_ctrls.busUtilRead                     3.40                      
system.mem_ctrls.busUtilWrite                    3.58                      
system.mem_ctrls.avgRdQLen                       1.00                      
system.mem_ctrls.avgWrQLen                      26.00                      
system.mem_ctrls.readRowHits                     8521                      
system.mem_ctrls.writeRowHits                   11792                      
system.mem_ctrls.readRowHitRate                 68.09                      
system.mem_ctrls.writeRowHitRate                89.43                      
system.mem_ctrls.avgGap                         32.90                      
system.mem_ctrls.pageHitRate                    79.04                      
system.mem_ctrls_0.actEnergy                 11252640                      
system.mem_ctrls_0.preEnergy                  6081936                      
system.mem_ctrls_0.readEnergy                45147648                      
system.mem_ctrls_0.writeEnergy               34335072                      
system.mem_ctrls_0.refreshEnergy         138294000.000000                      
system.mem_ctrls_0.actBackEnergy            188404152                      
system.mem_ctrls_0.preBackEnergy              3322368                      
system.mem_ctrls_0.actPowerDownEnergy       535078152                      
system.mem_ctrls_0.prePowerDownEnergy        50897280                      
system.mem_ctrls_0.selfRefreshEnergy         29127840                      
system.mem_ctrls_0.totalEnergy             1041941088                      
system.mem_ctrls_0.averagePower            566.289873                      
system.mem_ctrls_0.totalIdleTime              1418087                      
system.mem_ctrls_0.memoryStateTime::IDLE         2188                      
system.mem_ctrls_0.memoryStateTime::REF         58524                      
system.mem_ctrls_0.memoryStateTime::SREF       112162                      
system.mem_ctrls_0.memoryStateTime::PRE_PDN       132545                      
system.mem_ctrls_0.memoryStateTime::ACT        361107                      
system.mem_ctrls_0.memoryStateTime::ACT_PDN      1173417                      
system.mem_ctrls_1.actEnergy                 27010620                      
system.mem_ctrls_1.preEnergy                 14590464                      
system.mem_ctrls_1.readEnergy                97812288                      
system.mem_ctrls_1.writeEnergy               75560544                      
system.mem_ctrls_1.refreshEnergy         146284320.000000                      
system.mem_ctrls_1.actBackEnergy            210633696                      
system.mem_ctrls_1.preBackEnergy              3669888                      
system.mem_ctrls_1.actPowerDownEnergy       571228464                      
system.mem_ctrls_1.prePowerDownEnergy        37023744                      
system.mem_ctrls_1.selfRefreshEnergy          7407600                      
system.mem_ctrls_1.totalEnergy             1191221628                      
system.mem_ctrls_1.averagePower            647.423115                      
system.mem_ctrls_1.totalIdleTime              1368351                      
system.mem_ctrls_1.memoryStateTime::IDLE         2650                      
system.mem_ctrls_1.memoryStateTime::REF         61910                      
system.mem_ctrls_1.memoryStateTime::SREF        19360                      
system.mem_ctrls_1.memoryStateTime::PRE_PDN        96416                      
system.mem_ctrls_1.memoryStateTime::ACT        406913                      
system.mem_ctrls_1.memoryStateTime::ACT_PDN      1252694                      
system.pwrStateResidencyTicks::UNDEFINED      1839943                      
system.cpu.clk_domain.clock                         1                      
system.cpu.dtb.read_hits                            0                      
system.cpu.dtb.read_misses                          0                      
system.cpu.dtb.read_accesses                        0                      
system.cpu.dtb.write_hits                           0                      
system.cpu.dtb.write_misses                         0                      
system.cpu.dtb.write_accesses                       0                      
system.cpu.dtb.hits                                 0                      
system.cpu.dtb.misses                               0                      
system.cpu.dtb.accesses                             0                      
system.cpu.itb.read_hits                            0                      
system.cpu.itb.read_misses                          0                      
system.cpu.itb.read_accesses                        0                      
system.cpu.itb.write_hits                           0                      
system.cpu.itb.write_misses                         0                      
system.cpu.itb.write_accesses                       0                      
system.cpu.itb.hits                                 0                      
system.cpu.itb.misses                               0                      
system.cpu.itb.accesses                             0                      
system.cpu.workload.numSyscalls                    43                      
system.cpu.pwrStateResidencyTicks::ON         1839943                      
system.cpu.numCycles                          1839943                      
system.cpu.numWorkItemsStarted                      0                      
system.cpu.numWorkItemsCompleted                    0                      
system.cpu.committedInsts                      109472                      
system.cpu.committedOps                        109717                      
system.cpu.num_int_alu_accesses                109150                      
system.cpu.num_fp_alu_accesses                     12                      
system.cpu.num_vec_alu_accesses                     0                      
system.cpu.num_func_calls                        6222                      
system.cpu.num_conditional_control_insts        18212                      
system.cpu.num_int_insts                       109150                      
system.cpu.num_fp_insts                            12                      
system.cpu.num_vec_insts                            0                      
system.cpu.num_int_register_reads              137193                      
system.cpu.num_int_register_writes              72073                      
system.cpu.num_fp_register_reads                   12                      
system.cpu.num_fp_register_writes                   0                      
system.cpu.num_vec_register_reads                   0                      
system.cpu.num_vec_register_writes                  0                      
system.cpu.num_mem_refs                         42280                      
system.cpu.num_load_insts                       25599                      
system.cpu.num_store_insts                      16681                      
system.cpu.num_idle_cycles                          0                      
system.cpu.num_busy_cycles                    1839943                      
system.cpu.not_idle_fraction                        1                      
system.cpu.idle_fraction                            0                      
system.cpu.Branches                             24434                      
system.cpu.op_class::No_OpClass                    47      0.04%      0.04%
system.cpu.op_class::IntAlu                     67322     61.34%     61.38%
system.cpu.op_class::IntMult                      107      0.10%     61.48%
system.cpu.op_class::IntDiv                         4      0.00%     61.48%
system.cpu.op_class::FloatAdd                       0      0.00%     61.48%
system.cpu.op_class::FloatCmp                       0      0.00%     61.48%
system.cpu.op_class::FloatCvt                       0      0.00%     61.48%
system.cpu.op_class::FloatMult                      0      0.00%     61.48%
system.cpu.op_class::FloatMultAcc                   0      0.00%     61.48%
system.cpu.op_class::FloatDiv                       0      0.00%     61.48%
system.cpu.op_class::FloatMisc                      0      0.00%     61.48%
system.cpu.op_class::FloatSqrt                      0      0.00%     61.48%
system.cpu.op_class::SimdAdd                        0      0.00%     61.48%
system.cpu.op_class::SimdAddAcc                     0      0.00%     61.48%
system.cpu.op_class::SimdAlu                        0      0.00%     61.48%
system.cpu.op_class::SimdCmp                        0      0.00%     61.48%
system.cpu.op_class::SimdCvt                        0      0.00%     61.48%
system.cpu.op_class::SimdMisc                       0      0.00%     61.48%
system.cpu.op_class::SimdMult                       0      0.00%     61.48%
system.cpu.op_class::SimdMultAcc                    0      0.00%     61.48%
system.cpu.op_class::SimdShift                      0      0.00%     61.48%
system.cpu.op_class::SimdShiftAcc                   0      0.00%     61.48%
system.cpu.op_class::SimdSqrt                       0      0.00%     61.48%
system.cpu.op_class::SimdFloatAdd                   0      0.00%     61.48%
system.cpu.op_class::SimdFloatAlu                   0      0.00%     61.48%
system.cpu.op_class::SimdFloatCmp                   0      0.00%     61.48%
system.cpu.op_class::SimdFloatCvt                   0      0.00%     61.48%
system.cpu.op_class::SimdFloatDiv                   0      0.00%     61.48%
system.cpu.op_class::SimdFloatMisc                  0      0.00%     61.48%
system.cpu.op_class::SimdFloatMult                  0      0.00%     61.48%
system.cpu.op_class::SimdFloatMultAcc               0      0.00%     61.48%
system.cpu.op_class::SimdFloatSqrt                  0      0.00%     61.48%
system.cpu.op_class::MemRead                    25599     23.32%     84.80%
system.cpu.op_class::MemWrite                   16669     15.19%     99.99%
system.cpu.op_class::FloatMemRead                   0      0.00%     99.99%
system.cpu.op_class::FloatMemWrite                 12      0.01%    100.00%
system.cpu.op_class::IprAccess                      0      0.00%    100.00%
system.cpu.op_class::InstPrefetch                   0      0.00%    100.00%
system.cpu.op_class::total                     109760                      
system.ruby.clk_domain.clock                        1                      
system.ruby.pwrStateResidencyTicks::UNDEFINED      1839943                      
system.ruby.delayHist::bucket_size                  1                      
system.ruby.delayHist::max_bucket                   9                      
system.ruby.delayHist::samples                  55928                      
system.ruby.delayHist                    |       55928    100.00%    100.00% |           0      0.00%    100.00% |           0      0.00%    100.00% |           0      0.00%    100.00% |           0      0.00%    100.00% |           0      0.00%    100.00% |           0      0.00%    100.00% |           0      0.00%    100.00% |           0      0.00%    100.00% |           0      0.00%    100.00%
system.ruby.delayHist::total                    55928                      
system.ruby.outstanding_req_hist_seqr::bucket_size            1                      
system.ruby.outstanding_req_hist_seqr::max_bucket            9                      
system.ruby.outstanding_req_hist_seqr::samples       179162                      
system.ruby.outstanding_req_hist_seqr::mean            1                      
system.ruby.outstanding_req_hist_seqr::gmean            1                      
system.ruby.outstanding_req_hist_seqr    |           0      0.00%      0.00% |      179162    100.00%    100.00% |           0      0.00%    100.00% |           0      0.00%    100.00% |           0      0.00%    100.00% |           0      0.00%    100.00% |           0      0.00%    100.00% |           0      0.00%    100.00% |           0      0.00%    100.00% |           0      0.00%    100.00%
system.ruby.outstanding_req_hist_seqr::total       179162                      
system.ruby.latency_hist_seqr::bucket_size           64                      
system.ruby.latency_hist_seqr::max_bucket          639                      
system.ruby.latency_hist_seqr::samples         179161                      
system.ruby.latency_hist_seqr::mean          9.269774                      
system.ruby.latency_hist_seqr::gmean         1.826057                      
system.ruby.latency_hist_seqr::stdev        23.784174                      
system.ruby.latency_hist_seqr            |      167094     93.26%     93.26% |       11243      6.28%     99.54% |         569      0.32%     99.86% |          74      0.04%     99.90% |          99      0.06%     99.95% |          72      0.04%     99.99% |           2      0.00%    100.00% |           1      0.00%    100.00% |           0      0.00%    100.00% |           7      0.00%    100.00%
system.ruby.latency_hist_seqr::total           179161                      
system.ruby.hit_latency_hist_seqr::bucket_size            1                      
system.ruby.hit_latency_hist_seqr::max_bucket            9                      
system.ruby.hit_latency_hist_seqr::samples       151195                      
system.ruby.hit_latency_hist_seqr::mean             1                      
system.ruby.hit_latency_hist_seqr::gmean            1                      
system.ruby.hit_latency_hist_seqr        |           0      0.00%      0.00% |      151195    100.00%    100.00% |           0      0.00%    100.00% |           0      0.00%    100.00% |           0      0.00%    100.00% |           0      0.00%    100.00% |           0      0.00%    100.00% |           0      0.00%    100.00% |           0      0.00%    100.00% |           0      0.00%    100.00%
system.ruby.hit_latency_hist_seqr::total       151195                      
system.ruby.miss_latency_hist_seqr::bucket_size           64                      
system.ruby.miss_latency_hist_seqr::max_bucket          639                      
system.ruby.miss_latency_hist_seqr::samples        27966                      
system.ruby.miss_latency_hist_seqr::mean    53.979368                      
system.ruby.miss_latency_hist_seqr::gmean    47.354488                      
system.ruby.miss_latency_hist_seqr::stdev    35.430888                      
system.ruby.miss_latency_hist_seqr       |       15899     56.85%     56.85% |       11243     40.20%     97.05% |         569      2.03%     99.09% |          74      0.26%     99.35% |          99      0.35%     99.71% |          72      0.26%     99.96% |           2      0.01%     99.97% |           1      0.00%     99.97% |           0      0.00%     99.97% |           7      0.03%    100.00%
system.ruby.miss_latency_hist_seqr::total        27966                      
system.ruby.Directory.incomplete_times_seqr        27965                      
system.ruby.dir_cntrl0.forwardFromDir.avg_buf_msgs     0.015197                      
system.ruby.dir_cntrl0.forwardFromDir.avg_stall_time     0.999804                      
system.ruby.dir_cntrl0.requestToDir.avg_buf_msgs     0.030397                      
system.ruby.dir_cntrl0.requestToDir.avg_stall_time    11.756051                      
system.ruby.dir_cntrl0.responseFromDir.avg_buf_msgs     0.015199                      
system.ruby.dir_cntrl0.responseFromDir.avg_stall_time     0.999962                      
system.ruby.dir_cntrl0.responseFromMemory.avg_buf_msgs     0.030397                      
system.ruby.dir_cntrl0.responseFromMemory.avg_stall_time     0.999963                      
system.ruby.dir_cntrl0.pwrStateResidencyTicks::UNDEFINED      1839943                      
system.ruby.l1_cntrl0.cacheMemory.demand_hits       151195                      
system.ruby.l1_cntrl0.cacheMemory.demand_misses        27966                      
system.ruby.l1_cntrl0.cacheMemory.demand_accesses       179161                      
system.ruby.l1_cntrl0.forwardToCache.avg_buf_msgs     0.015197                      
system.ruby.l1_cntrl0.forwardToCache.avg_stall_time     6.998608                      
system.ruby.l1_cntrl0.mandatoryQueue.avg_buf_msgs     0.097374                      
system.ruby.l1_cntrl0.mandatoryQueue.avg_stall_time     0.999999                      
system.ruby.l1_cntrl0.requestFromCache.avg_buf_msgs     0.060793                      
system.ruby.l1_cntrl0.requestFromCache.avg_stall_time     1.999997                      
system.ruby.l1_cntrl0.responseToCache.avg_buf_msgs     0.015199                      
system.ruby.l1_cntrl0.responseToCache.avg_stall_time     6.999715                      
system.ruby.l1_cntrl0.sequencer.pwrStateResidencyTicks::UNDEFINED      1839943                      
system.ruby.l1_cntrl0.pwrStateResidencyTicks::UNDEFINED      1839943                      
system.ruby.memctrl_clk_domain.clock                3                      
system.ruby.network.routers0.port_buffers03.avg_buf_msgs     0.015197                      
system.ruby.network.routers0.port_buffers03.avg_stall_time     5.998810                      
system.ruby.network.routers0.port_buffers04.avg_buf_msgs     0.015199                      
system.ruby.network.routers0.port_buffers04.avg_stall_time     5.999759                      
system.ruby.network.routers0.port_buffers07.avg_buf_msgs     0.091185                      
system.ruby.network.routers0.port_buffers07.avg_stall_time     6.756095                      
system.ruby.network.routers0.pwrStateResidencyTicks::UNDEFINED      1839943                      
system.ruby.network.routers0.percent_links_utilized     7.599148                      
system.ruby.network.routers0.msg_count.Control::2        27966                      
system.ruby.network.routers0.msg_count.Data::2        27962                      
system.ruby.network.routers0.msg_count.Response_Data::4        27966                      
system.ruby.network.routers0.msg_count.Writeback_Control::3        27962                      
system.ruby.network.routers0.msg_bytes.Control::2       223728                      
system.ruby.network.routers0.msg_bytes.Data::2      2013264                      
system.ruby.network.routers0.msg_bytes.Response_Data::4      2013552                      
system.ruby.network.routers0.msg_bytes.Writeback_Control::3       223696                      
system.ruby.network.routers1.port_buffers02.avg_buf_msgs     0.030397                      
system.ruby.network.routers1.port_buffers02.avg_stall_time    10.756062                      
system.ruby.network.routers1.port_buffers06.avg_buf_msgs     0.015197                      
system.ruby.network.routers1.port_buffers06.avg_stall_time     1.999608                      
system.ruby.network.routers1.port_buffers07.avg_buf_msgs     0.015199                      
system.ruby.network.routers1.port_buffers07.avg_stall_time     1.999924                      
system.ruby.network.routers1.pwrStateResidencyTicks::UNDEFINED      1839943                      
system.ruby.network.routers1.percent_links_utilized     7.599148                      
system.ruby.network.routers1.msg_count.Control::2        27966                      
system.ruby.network.routers1.msg_count.Data::2        27962                      
system.ruby.network.routers1.msg_count.Response_Data::4        27966                      
system.ruby.network.routers1.msg_count.Writeback_Control::3        27962                      
system.ruby.network.routers1.msg_bytes.Control::2       223728                      
system.ruby.network.routers1.msg_bytes.Data::2      2013264                      
system.ruby.network.routers1.msg_bytes.Response_Data::4      2013552                      
system.ruby.network.routers1.msg_bytes.Writeback_Control::3       223696                      
system.ruby.network.int_link_buffers02.avg_buf_msgs     0.030397                      
system.ruby.network.int_link_buffers02.avg_stall_time     7.756088                      
system.ruby.network.int_link_buffers08.avg_buf_msgs     0.015197                      
system.ruby.network.int_link_buffers08.avg_stall_time     2.999410                      
system.ruby.network.int_link_buffers09.avg_buf_msgs     0.015199                      
system.ruby.network.int_link_buffers09.avg_stall_time     2.999884                      
system.ruby.network.int_link_buffers13.avg_buf_msgs     0.015197                      
system.ruby.network.int_link_buffers13.avg_stall_time     4.999011                      
system.ruby.network.int_link_buffers14.avg_buf_msgs     0.015199                      
system.ruby.network.int_link_buffers14.avg_stall_time     4.999802                      
system.ruby.network.int_link_buffers17.avg_buf_msgs     0.030397                      
system.ruby.network.int_link_buffers17.avg_stall_time     9.756072                      
system.ruby.network.routers2.port_buffers03.avg_buf_msgs     0.015197                      
system.ruby.network.routers2.port_buffers03.avg_stall_time     3.999211                      
system.ruby.network.routers2.port_buffers04.avg_buf_msgs     0.015199                      
system.ruby.network.routers2.port_buffers04.avg_stall_time     3.999843                      
system.ruby.network.routers2.port_buffers07.avg_buf_msgs     0.030397                      
system.ruby.network.routers2.port_buffers07.avg_stall_time     8.756081                      
system.ruby.network.routers2.pwrStateResidencyTicks::UNDEFINED      1839943                      
system.ruby.network.routers2.percent_links_utilized     7.599148                      
system.ruby.network.routers2.msg_count.Control::2        27966                      
system.ruby.network.routers2.msg_count.Data::2        27962                      
system.ruby.network.routers2.msg_count.Response_Data::4        27966                      
system.ruby.network.routers2.msg_count.Writeback_Control::3        27962                      
system.ruby.network.routers2.msg_bytes.Control::2       223728                      
system.ruby.network.routers2.msg_bytes.Data::2      2013264                      
system.ruby.network.routers2.msg_bytes.Response_Data::4      2013552                      
system.ruby.network.routers2.msg_bytes.Writeback_Control::3       223696                      
system.ruby.network.pwrStateResidencyTicks::UNDEFINED      1839943                      
system.ruby.network.msg_count.Control           83898                      
system.ruby.network.msg_count.Data              83886                      
system.ruby.network.msg_count.Response_Data        83898                      
system.ruby.network.msg_count.Writeback_Control        83886                      
system.ruby.network.msg_byte.Control           671184                      
system.ruby.network.msg_byte.Data             6039792                      
system.ruby.network.msg_byte.Response_Data      6040656                      
system.ruby.network.msg_byte.Writeback_Control       671088                      
system.sys_port_proxy.pwrStateResidencyTicks::UNDEFINED      1839943                      
system.ruby.network.routers0.throttle0.link_utilization     7.599583                      
system.ruby.network.routers0.throttle0.msg_count.Response_Data::4        27966                      
system.ruby.network.routers0.throttle0.msg_count.Writeback_Control::3        27962                      
system.ruby.network.routers0.throttle0.msg_bytes.Response_Data::4      2013552                      
system.ruby.network.routers0.throttle0.msg_bytes.Writeback_Control::3       223696                      
system.ruby.network.routers0.throttle1.link_utilization     7.598714                      
system.ruby.network.routers0.throttle1.msg_count.Control::2        27966                      
system.ruby.network.routers0.throttle1.msg_count.Data::2        27962                      
system.ruby.network.routers0.throttle1.msg_bytes.Control::2       223728                      
system.ruby.network.routers0.throttle1.msg_bytes.Data::2      2013264                      
system.ruby.network.routers1.throttle0.link_utilization     7.598714                      
system.ruby.network.routers1.throttle0.msg_count.Control::2        27966                      
system.ruby.network.routers1.throttle0.msg_count.Data::2        27962                      
system.ruby.network.routers1.throttle0.msg_bytes.Control::2       223728                      
system.ruby.network.routers1.throttle0.msg_bytes.Data::2      2013264                      
system.ruby.network.routers1.throttle1.link_utilization     7.599583                      
system.ruby.network.routers1.throttle1.msg_count.Response_Data::4        27966                      
system.ruby.network.routers1.throttle1.msg_count.Writeback_Control::3        27962                      
system.ruby.network.routers1.throttle1.msg_bytes.Response_Data::4      2013552                      
system.ruby.network.routers1.throttle1.msg_bytes.Writeback_Control::3       223696                      
system.ruby.network.routers2.throttle0.link_utilization     7.599583                      
system.ruby.network.routers2.throttle0.msg_count.Response_Data::4        27966                      
system.ruby.network.routers2.throttle0.msg_count.Writeback_Control::3        27962                      
system.ruby.network.routers2.throttle0.msg_bytes.Response_Data::4      2013552                      
system.ruby.network.routers2.throttle0.msg_bytes.Writeback_Control::3       223696                      
system.ruby.network.routers2.throttle1.link_utilization     7.598714                      
system.ruby.network.routers2.throttle1.msg_count.Control::2        27966                      
system.ruby.network.routers2.throttle1.msg_count.Data::2        27962                      
system.ruby.network.routers2.throttle1.msg_bytes.Control::2       223728                      
system.ruby.network.routers2.throttle1.msg_bytes.Data::2      2013264                      
system.ruby.delayVCHist.vnet_1::bucket_size            1                      
system.ruby.delayVCHist.vnet_1::max_bucket            9                      
system.ruby.delayVCHist.vnet_1::samples         27966                      
system.ruby.delayVCHist.vnet_1           |       27966    100.00%    100.00% |           0      0.00%    100.00% |           0      0.00%    100.00% |           0      0.00%    100.00% |           0      0.00%    100.00% |           0      0.00%    100.00% |           0      0.00%    100.00% |           0      0.00%    100.00% |           0      0.00%    100.00% |           0      0.00%    100.00%
system.ruby.delayVCHist.vnet_1::total           27966                      
system.ruby.delayVCHist.vnet_2::bucket_size            1                      
system.ruby.delayVCHist.vnet_2::max_bucket            9                      
system.ruby.delayVCHist.vnet_2::samples         27962                      
system.ruby.delayVCHist.vnet_2           |       27962    100.00%    100.00% |           0      0.00%    100.00% |           0      0.00%    100.00% |           0      0.00%    100.00% |           0      0.00%    100.00% |           0      0.00%    100.00% |           0      0.00%    100.00% |           0      0.00%    100.00% |           0      0.00%    100.00% |           0      0.00%    100.00%
system.ruby.delayVCHist.vnet_2::total           27962                      
system.ruby.LD.latency_hist_seqr::bucket_size           64                      
system.ruby.LD.latency_hist_seqr::max_bucket          639                      
system.ruby.LD.latency_hist_seqr::samples        25323                      
system.ruby.LD.latency_hist_seqr::mean      26.167871                      
system.ruby.LD.latency_hist_seqr::gmean      6.358244                      
system.ruby.LD.latency_hist_seqr::stdev     35.598665                      
system.ruby.LD.latency_hist_seqr         |       20253     79.98%     79.98% |        4722     18.65%     98.63% |         249      0.98%     99.61% |          26      0.10%     99.71% |          31      0.12%     99.83% |          39      0.15%     99.99% |           1      0.00%     99.99% |           1      0.00%    100.00% |           0      0.00%    100.00% |           1      0.00%    100.00%
system.ruby.LD.latency_hist_seqr::total         25323                      
system.ruby.LD.hit_latency_hist_seqr::bucket_size            1                      
system.ruby.LD.hit_latency_hist_seqr::max_bucket            9                      
system.ruby.LD.hit_latency_hist_seqr::samples        13139                      
system.ruby.LD.hit_latency_hist_seqr::mean            1                      
system.ruby.LD.hit_latency_hist_seqr::gmean            1                      
system.ruby.LD.hit_latency_hist_seqr     |           0      0.00%      0.00% |       13139    100.00%    100.00% |           0      0.00%    100.00% |           0      0.00%    100.00% |           0      0.00%    100.00% |           0      0.00%    100.00% |           0      0.00%    100.00% |           0      0.00%    100.00% |           0      0.00%    100.00% |           0      0.00%    100.00%
system.ruby.LD.hit_latency_hist_seqr::total        13139                      
system.ruby.LD.miss_latency_hist_seqr::bucket_size           64                      
system.ruby.LD.miss_latency_hist_seqr::max_bucket          639                      
system.ruby.LD.miss_latency_hist_seqr::samples        12184                      
system.ruby.LD.miss_latency_hist_seqr::mean    53.308437                      
system.ruby.LD.miss_latency_hist_seqr::gmean    46.734877                      
system.ruby.LD.miss_latency_hist_seqr::stdev    34.845015                      
system.ruby.LD.miss_latency_hist_seqr    |        7114     58.39%     58.39% |        4722     38.76%     97.14% |         249      2.04%     99.19% |          26      0.21%     99.40% |          31      0.25%     99.66% |          39      0.32%     99.98% |           1      0.01%     99.98% |           1      0.01%     99.99% |           0      0.00%     99.99% |           1      0.01%    100.00%
system.ruby.LD.miss_latency_hist_seqr::total        12184                      
system.ruby.ST.latency_hist_seqr::bucket_size           64                      
system.ruby.ST.latency_hist_seqr::max_bucket          639                      
system.ruby.ST.latency_hist_seqr::samples        16403                      
system.ruby.ST.latency_hist_seqr::mean      14.993050                      
system.ruby.ST.latency_hist_seqr::gmean      3.328198                      
system.ruby.ST.latency_hist_seqr::stdev     26.739141                      
system.ruby.ST.latency_hist_seqr         |       15242     92.92%     92.92% |        1054      6.43%     99.35% |          82      0.50%     99.85% |           7      0.04%     99.89% |           7      0.04%     99.93% |           7      0.04%     99.98% |           0      0.00%     99.98% |           0      0.00%     99.98% |           0      0.00%     99.98% |           4      0.02%    100.00%
system.ruby.ST.latency_hist_seqr::total         16403                      
system.ruby.ST.hit_latency_hist_seqr::bucket_size            1                      
system.ruby.ST.hit_latency_hist_seqr::max_bucket            9                      
system.ruby.ST.hit_latency_hist_seqr::samples        11027                      
system.ruby.ST.hit_latency_hist_seqr::mean            1                      
system.ruby.ST.hit_latency_hist_seqr::gmean            1                      
system.ruby.ST.hit_latency_hist_seqr     |           0      0.00%      0.00% |       11027    100.00%    100.00% |           0      0.00%    100.00% |           0      0.00%    100.00% |           0      0.00%    100.00% |           0      0.00%    100.00% |           0      0.00%    100.00% |           0      0.00%    100.00% |           0      0.00%    100.00% |           0      0.00%    100.00%
system.ruby.ST.hit_latency_hist_seqr::total        11027                      
system.ruby.ST.miss_latency_hist_seqr::bucket_size           64                      
system.ruby.ST.miss_latency_hist_seqr::max_bucket          639                      
system.ruby.ST.miss_latency_hist_seqr::samples         5376                      
system.ruby.ST.miss_latency_hist_seqr::mean    43.694940                      
system.ruby.ST.miss_latency_hist_seqr::gmean    39.204902                      
system.ruby.ST.miss_latency_hist_seqr::stdev    30.921481                      
system.ruby.ST.miss_latency_hist_seqr    |        4215     78.40%     78.40% |        1054     19.61%     98.01% |          82      1.53%     99.53% |           7      0.13%     99.67% |           7      0.13%     99.80% |           7      0.13%     99.93% |           0      0.00%     99.93% |           0      0.00%     99.93% |           0      0.00%     99.93% |           4      0.07%    100.00%
system.ruby.ST.miss_latency_hist_seqr::total         5376                      
system.ruby.IFETCH.latency_hist_seqr::bucket_size           64                      
system.ruby.IFETCH.latency_hist_seqr::max_bucket          639                      
system.ruby.IFETCH.latency_hist_seqr::samples       136883                      
system.ruby.IFETCH.latency_hist_seqr::mean     5.489286                      
system.ruby.IFETCH.latency_hist_seqr::gmean     1.352170                      
system.ruby.IFETCH.latency_hist_seqr::stdev    18.678978                      
system.ruby.IFETCH.latency_hist_seqr     |      131050     95.74%     95.74% |        5464      3.99%     99.73% |         238      0.17%     99.90% |          41      0.03%     99.93% |          61      0.04%     99.98% |          26      0.02%    100.00% |           1      0.00%    100.00% |           0      0.00%    100.00% |           0      0.00%    100.00% |           2      0.00%    100.00%
system.ruby.IFETCH.latency_hist_seqr::total       136883                      
system.ruby.IFETCH.hit_latency_hist_seqr::bucket_size            1                      
system.ruby.IFETCH.hit_latency_hist_seqr::max_bucket            9                      
system.ruby.IFETCH.hit_latency_hist_seqr::samples       126482                      
system.ruby.IFETCH.hit_latency_hist_seqr::mean            1                      
system.ruby.IFETCH.hit_latency_hist_seqr::gmean            1                      
system.ruby.IFETCH.hit_latency_hist_seqr |           0      0.00%      0.00% |      126482    100.00%    100.00% |           0      0.00%    100.00% |           0      0.00%    100.00% |           0      0.00%    100.00% |           0      0.00%    100.00% |           0      0.00%    100.00% |           0      0.00%    100.00% |           0      0.00%    100.00% |           0      0.00%    100.00%
system.ruby.IFETCH.hit_latency_hist_seqr::total       126482                      
system.ruby.IFETCH.miss_latency_hist_seqr::bucket_size           64                      
system.ruby.IFETCH.miss_latency_hist_seqr::max_bucket          639                      
system.ruby.IFETCH.miss_latency_hist_seqr::samples        10401                      
system.ruby.IFETCH.miss_latency_hist_seqr::mean    60.081531                      
system.ruby.IFETCH.miss_latency_hist_seqr::gmean    53.020688                      
system.ruby.IFETCH.miss_latency_hist_seqr::stdev    36.965931                      
system.ruby.IFETCH.miss_latency_hist_seqr |        4568     43.92%     43.92% |        5464     52.53%     96.45% |         238      2.29%     98.74% |          41      0.39%     99.13% |          61      0.59%     99.72% |          26      0.25%     99.97% |           1      0.01%     99.98% |           0      0.00%     99.98% |           0      0.00%     99.98% |           2      0.02%    100.00%
system.ruby.IFETCH.miss_latency_hist_seqr::total        10401                      
system.ruby.Load_Linked.latency_hist_seqr::bucket_size            8                      
system.ruby.Load_Linked.latency_hist_seqr::max_bucket           79                      
system.ruby.Load_Linked.latency_hist_seqr::samples          276                      
system.ruby.Load_Linked.latency_hist_seqr::mean     1.942029                      
system.ruby.Load_Linked.latency_hist_seqr::gmean     1.073385                      
system.ruby.Load_Linked.latency_hist_seqr::stdev     7.322462                      
system.ruby.Load_Linked.latency_hist_seqr |         271     98.19%     98.19% |           0      0.00%     98.19% |           0      0.00%     98.19% |           0      0.00%     98.19% |           2      0.72%     98.91% |           0      0.00%     98.91% |           0      0.00%     98.91% |           0      0.00%     98.91% |           3      1.09%    100.00% |           0      0.00%    100.00%
system.ruby.Load_Linked.latency_hist_seqr::total          276                      
system.ruby.Load_Linked.hit_latency_hist_seqr::bucket_size            1                      
system.ruby.Load_Linked.hit_latency_hist_seqr::max_bucket            9                      
system.ruby.Load_Linked.hit_latency_hist_seqr::samples          271                      
system.ruby.Load_Linked.hit_latency_hist_seqr::mean            1                      
system.ruby.Load_Linked.hit_latency_hist_seqr::gmean            1                      
system.ruby.Load_Linked.hit_latency_hist_seqr |           0      0.00%      0.00% |         271    100.00%    100.00% |           0      0.00%    100.00% |           0      0.00%    100.00% |           0      0.00%    100.00% |           0      0.00%    100.00% |           0      0.00%    100.00% |           0      0.00%    100.00% |           0      0.00%    100.00% |           0      0.00%    100.00%
system.ruby.Load_Linked.hit_latency_hist_seqr::total          271                      
system.ruby.Load_Linked.miss_latency_hist_seqr::bucket_size            8                      
system.ruby.Load_Linked.miss_latency_hist_seqr::max_bucket           79                      
system.ruby.Load_Linked.miss_latency_hist_seqr::samples            5                      
system.ruby.Load_Linked.miss_latency_hist_seqr::mean           53                      
system.ruby.Load_Linked.miss_latency_hist_seqr::gmean    49.854558                      
system.ruby.Load_Linked.miss_latency_hist_seqr::stdev    19.170290                      
system.ruby.Load_Linked.miss_latency_hist_seqr |           0      0.00%      0.00% |           0      0.00%      0.00% |           0      0.00%      0.00% |           0      0.00%      0.00% |           2     40.00%     40.00% |           0      0.00%     40.00% |           0      0.00%     40.00% |           0      0.00%     40.00% |           3     60.00%    100.00% |           0      0.00%    100.00%
system.ruby.Load_Linked.miss_latency_hist_seqr::total            5                      
system.ruby.Store_Conditional.latency_hist_seqr::bucket_size            1                      
system.ruby.Store_Conditional.latency_hist_seqr::max_bucket            9                      
system.ruby.Store_Conditional.latency_hist_seqr::samples          276                      
system.ruby.Store_Conditional.latency_hist_seqr::mean            1                      
system.ruby.Store_Conditional.latency_hist_seqr::gmean            1                      
system.ruby.Store_Conditional.latency_hist_seqr |           0      0.00%      0.00% |         276    100.00%    100.00% |           0      0.00%    100.00% |           0      0.00%    100.00% |           0      0.00%    100.00% |           0      0.00%    100.00% |           0      0.00%    100.00% |           0      0.00%    100.00% |           0      0.00%    100.00% |           0      0.00%    100.00%
system.ruby.Store_Conditional.latency_hist_seqr::total          276                      
system.ruby.Store_Conditional.hit_latency_hist_seqr::bucket_size            1                      
system.ruby.Store_Conditional.hit_latency_hist_seqr::max_bucket            9                      
system.ruby.Store_Conditional.hit_latency_hist_seqr::samples          276                      
system.ruby.Store_Conditional.hit_latency_hist_seqr::mean            1                      
system.ruby.Store_Conditional.hit_latency_hist_seqr::gmean            1                      
system.ruby.Store_Conditional.hit_latency_hist_seqr |           0      0.00%      0.00% |         276    100.00%    100.00% |           0      0.00%    100.00% |           0      0.00%    100.00% |           0      0.00%    100.00% |           0      0.00%    100.00% |           0      0.00%    100.00% |           0      0.00%    100.00% |           0      0.00%    100.00% |           0      0.00%    100.00%
system.ruby.Store_Conditional.hit_latency_hist_seqr::total          276                      
system.ruby.Directory.miss_mach_latency_hist_seqr::bucket_size           64                      
system.ruby.Directory.miss_mach_latency_hist_seqr::max_bucket          639                      
system.ruby.Directory.miss_mach_latency_hist_seqr::samples        27966                      
system.ruby.Directory.miss_mach_latency_hist_seqr::mean    53.979368                      
system.ruby.Directory.miss_mach_latency_hist_seqr::gmean    47.354488                      
system.ruby.Directory.miss_mach_latency_hist_seqr::stdev    35.430888                      
system.ruby.Directory.miss_mach_latency_hist_seqr |       15899     56.85%     56.85% |       11243     40.20%     97.05% |         569      2.03%     99.09% |          74      0.26%     99.35% |          99      0.35%     99.71% |          72      0.26%     99.96% |           2      0.01%     99.97% |           1      0.00%     99.97% |           0      0.00%     99.97% |           7      0.03%    100.00%
system.ruby.Directory.miss_mach_latency_hist_seqr::total        27966                      
system.ruby.Directory.miss_latency_hist_seqr.issue_to_initial_request::bucket_size            1                      
system.ruby.Directory.miss_latency_hist_seqr.issue_to_initial_request::max_bucket            9                      
system.ruby.Directory.miss_latency_hist_seqr.issue_to_initial_request::samples            1                      
system.ruby.Directory.miss_latency_hist_seqr.issue_to_initial_request::stdev          nan                      
system.ruby.Directory.miss_latency_hist_seqr.issue_to_initial_request |           1    100.00%    100.00% |           0      0.00%    100.00% |           0      0.00%    100.00% |           0      0.00%    100.00% |           0      0.00%    100.00% |           0      0.00%    100.00% |           0      0.00%    100.00% |           0      0.00%    100.00% |           0      0.00%    100.00% |           0      0.00%    100.00%
system.ruby.Directory.miss_latency_hist_seqr.issue_to_initial_request::total            1                      
system.ruby.Directory.miss_latency_hist_seqr.initial_to_forward::bucket_size            1                      
system.ruby.Directory.miss_latency_hist_seqr.initial_to_forward::max_bucket            9                      
system.ruby.Directory.miss_latency_hist_seqr.initial_to_forward::samples            1                      
system.ruby.Directory.miss_latency_hist_seqr.initial_to_forward::stdev          nan                      
system.ruby.Directory.miss_latency_hist_seqr.initial_to_forward |           1    100.00%    100.00% |           0      0.00%    100.00% |           0      0.00%    100.00% |           0      0.00%    100.00% |           0      0.00%    100.00% |           0      0.00%    100.00% |           0      0.00%    100.00% |           0      0.00%    100.00% |           0      0.00%    100.00% |           0      0.00%    100.00%
system.ruby.Directory.miss_latency_hist_seqr.initial_to_forward::total            1                      
system.ruby.Directory.miss_latency_hist_seqr.forward_to_first_response::bucket_size            1                      
system.ruby.Directory.miss_latency_hist_seqr.forward_to_first_response::max_bucket            9                      
system.ruby.Directory.miss_latency_hist_seqr.forward_to_first_response::samples            1                      
system.ruby.Directory.miss_latency_hist_seqr.forward_to_first_response::stdev          nan                      
system.ruby.Directory.miss_latency_hist_seqr.forward_to_first_response |           1    100.00%    100.00% |           0      0.00%    100.00% |           0      0.00%    100.00% |           0      0.00%    100.00% |           0      0.00%    100.00% |           0      0.00%    100.00% |           0      0.00%    100.00% |           0      0.00%    100.00% |           0      0.00%    100.00% |           0      0.00%    100.00%
system.ruby.Directory.miss_latency_hist_seqr.forward_to_first_response::total            1                      
system.ruby.Directory.miss_latency_hist_seqr.first_response_to_completion::bucket_size            8                      
system.ruby.Directory.miss_latency_hist_seqr.first_response_to_completion::max_bucket           79                      
system.ruby.Directory.miss_latency_hist_seqr.first_response_to_completion::samples            1                      
system.ruby.Directory.miss_latency_hist_seqr.first_response_to_completion::mean           75                      
system.ruby.Directory.miss_latency_hist_seqr.first_response_to_completion::gmean    75.000000                      
system.ruby.Directory.miss_latency_hist_seqr.first_response_to_completion::stdev          nan                      
system.ruby.Directory.miss_latency_hist_seqr.first_response_to_completion |           0      0.00%      0.00% |           0      0.00%      0.00% |           0      0.00%      0.00% |           0      0.00%      0.00% |           0      0.00%      0.00% |           0      0.00%      0.00% |           0      0.00%      0.00% |           0      0.00%      0.00% |           0      0.00%      0.00% |           1    100.00%    100.00%
system.ruby.Directory.miss_latency_hist_seqr.first_response_to_completion::total            1                      
system.ruby.LD.Directory.miss_type_mach_latency_hist_seqr::bucket_size           64                      
system.ruby.LD.Directory.miss_type_mach_latency_hist_seqr::max_bucket          639                      
system.ruby.LD.Directory.miss_type_mach_latency_hist_seqr::samples        12184                      
system.ruby.LD.Directory.miss_type_mach_latency_hist_seqr::mean    53.308437                      
system.ruby.LD.Directory.miss_type_mach_latency_hist_seqr::gmean    46.734877                      
system.ruby.LD.Directory.miss_type_mach_latency_hist_seqr::stdev    34.845015                      
system.ruby.LD.Directory.miss_type_mach_latency_hist_seqr |        7114     58.39%     58.39% |        4722     38.76%     97.14% |         249      2.04%     99.19% |          26      0.21%     99.40% |          31      0.25%     99.66% |          39      0.32%     99.98% |           1      0.01%     99.98% |           1      0.01%     99.99% |           0      0.00%     99.99% |           1      0.01%    100.00%
system.ruby.LD.Directory.miss_type_mach_latency_hist_seqr::total        12184                      
system.ruby.ST.Directory.miss_type_mach_latency_hist_seqr::bucket_size           64                      
system.ruby.ST.Directory.miss_type_mach_latency_hist_seqr::max_bucket          639                      
system.ruby.ST.Directory.miss_type_mach_latency_hist_seqr::samples         5376                      
system.ruby.ST.Directory.miss_type_mach_latency_hist_seqr::mean    43.694940                      
system.ruby.ST.Directory.miss_type_mach_latency_hist_seqr::gmean    39.204902                      
system.ruby.ST.Directory.miss_type_mach_latency_hist_seqr::stdev    30.921481                      
system.ruby.ST.Directory.miss_type_mach_latency_hist_seqr |        4215     78.40%     78.40% |        1054     19.61%     98.01% |          82      1.53%     99.53% |           7      0.13%     99.67% |           7      0.13%     99.80% |           7      0.13%     99.93% |           0      0.00%     99.93% |           0      0.00%     99.93% |           0      0.00%     99.93% |           4      0.07%    100.00%
system.ruby.ST.Directory.miss_type_mach_latency_hist_seqr::total         5376                      
system.ruby.IFETCH.Directory.miss_type_mach_latency_hist_seqr::bucket_size           64                      
system.ruby.IFETCH.Directory.miss_type_mach_latency_hist_seqr::max_bucket          639                      
system.ruby.IFETCH.Directory.miss_type_mach_latency_hist_seqr::samples        10401                      
system.ruby.IFETCH.Directory.miss_type_mach_latency_hist_seqr::mean    60.081531                      
system.ruby.IFETCH.Directory.miss_type_mach_latency_hist_seqr::gmean    53.020688                      
system.ruby.IFETCH.Directory.miss_type_mach_latency_hist_seqr::stdev    36.965931                      
system.ruby.IFETCH.Directory.miss_type_mach_latency_hist_seqr |        4568     43.92%     43.92% |        5464     52.53%     96.45% |         238      2.29%     98.74% |          41      0.39%     99.13% |          61      0.59%     99.72% |          26      0.25%     99.97% |           1      0.01%     99.98% |           0      0.00%     99.98% |           0      0.00%     99.98% |           2      0.02%    100.00%
system.ruby.IFETCH.Directory.miss_type_mach_latency_hist_seqr::total        10401                      
system.ruby.Load_Linked.Directory.miss_type_mach_latency_hist_seqr::bucket_size            8                      
system.ruby.Load_Linked.Directory.miss_type_mach_latency_hist_seqr::max_bucket           79                      
system.ruby.Load_Linked.Directory.miss_type_mach_latency_hist_seqr::samples            5                      
system.ruby.Load_Linked.Directory.miss_type_mach_latency_hist_seqr::mean           53                      
system.ruby.Load_Linked.Directory.miss_type_mach_latency_hist_seqr::gmean    49.854558                      
system.ruby.Load_Linked.Directory.miss_type_mach_latency_hist_seqr::stdev    19.170290                      
system.ruby.Load_Linked.Directory.miss_type_mach_latency_hist_seqr |           0      0.00%      0.00% |           0      0.00%      0.00% |           0      0.00%      0.00% |           0      0.00%      0.00% |           2     40.00%     40.00% |           0      0.00%     40.00% |           0      0.00%     40.00% |           0      0.00%     40.00% |           3     60.00%    100.00% |           0      0.00%    100.00%
system.ruby.Load_Linked.Directory.miss_type_mach_latency_hist_seqr::total            5                      
system.ruby.Directory_Controller.GETX           27966      0.00%      0.00%
system.ruby.Directory_Controller.PUTX           27962      0.00%      0.00%
system.ruby.Directory_Controller.Memory_Data        27966      0.00%      0.00%
system.ruby.Directory_Controller.Memory_Ack        27962      0.00%      0.00%
system.ruby.Directory_Controller.I.GETX         27966      0.00%      0.00%
system.ruby.Directory_Controller.M.PUTX         27962      0.00%      0.00%
system.ruby.Directory_Controller.IM.Memory_Data        27966      0.00%      0.00%
system.ruby.Directory_Controller.MI.Memory_Ack        27962      0.00%      0.00%
system.ruby.L1Cache_Controller.Load             25323      0.00%      0.00%
system.ruby.L1Cache_Controller.Ifetch          136883      0.00%      0.00%
system.ruby.L1Cache_Controller.Store            16955      0.00%      0.00%
system.ruby.L1Cache_Controller.Data             27966      0.00%      0.00%
system.ruby.L1Cache_Controller.Replacement        27962      0.00%      0.00%
system.ruby.L1Cache_Controller.Writeback_Ack        27962      0.00%      0.00%
system.ruby.L1Cache_Controller.I.Load           12184      0.00%      0.00%
system.ruby.L1Cache_Controller.I.Ifetch         10401      0.00%      0.00%
system.ruby.L1Cache_Controller.I.Store           5381      0.00%      0.00%
system.ruby.L1Cache_Controller.M.Load           13139      0.00%      0.00%
system.ruby.L1Cache_Controller.M.Ifetch        126482      0.00%      0.00%
system.ruby.L1Cache_Controller.M.Store          11574      0.00%      0.00%
system.ruby.L1Cache_Controller.M.Replacement        27962      0.00%      0.00%
system.ruby.L1Cache_Controller.MI.Writeback_Ack        27962      0.00%      0.00%
system.ruby.L1Cache_Controller.IS.Data          22585      0.00%      0.00%
system.ruby.L1Cache_Controller.IM.Data           5381      0.00%      0.00%

---------- End Simulation Statistics   ----------
