
---------- Begin Simulation Statistics ----------
sim_seconds                                  0.000179                      
sim_ticks                                   178832500                      
final_tick                                  178832500                      
sim_freq                                 1000000000000                      
host_inst_rate                                 144330                      
host_op_rate                                   144642                      
host_tick_rate                              235659197                      
host_mem_usage                                 401816                      
host_seconds                                     0.76                      
sim_insts                                      109515                      
sim_ops                                        109760                      
system.voltage_domain.voltage                       1                      
system.clk_domain.clock                          1000                      
system.physmem.pwrStateResidencyTicks::UNDEFINED    178832500                      
system.physmem.bytes_read::cpu.inst             61184                      
system.physmem.bytes_read::cpu.data             29888                      
system.physmem.bytes_read::total                91072                      
system.physmem.bytes_inst_read::cpu.inst        61184                      
system.physmem.bytes_inst_read::total           61184                      
system.physmem.num_reads::cpu.inst                956                      
system.physmem.num_reads::cpu.data                467                      
system.physmem.num_reads::total                  1423                      
system.physmem.bw_read::cpu.inst            342130206                      
system.physmem.bw_read::cpu.data            167128458                      
system.physmem.bw_read::total               509258664                      
system.physmem.bw_inst_read::cpu.inst       342130206                      
system.physmem.bw_inst_read::total          342130206                      
system.physmem.bw_total::cpu.inst           342130206                      
system.physmem.bw_total::cpu.data           167128458                      
system.physmem.bw_total::total              509258664                      
system.physmem.readReqs                          1423                      
system.physmem.writeReqs                            0                      
system.physmem.readBursts                        1423                      
system.physmem.writeBursts                          0                      
system.physmem.bytesReadDRAM                    91072                      
system.physmem.bytesReadWrQ                         0                      
system.physmem.bytesWritten                         0                      
system.physmem.bytesReadSys                     91072                      
system.physmem.bytesWrittenSys                      0                      
system.physmem.servicedByWrQ                        0                      
system.physmem.mergedWrBursts                       0                      
system.physmem.neitherReadNorWriteReqs              0                      
system.physmem.perBankRdBursts::0                 150                      
system.physmem.perBankRdBursts::1                  98                      
system.physmem.perBankRdBursts::2                 132                      
system.physmem.perBankRdBursts::3                  89                      
system.physmem.perBankRdBursts::4                  28                      
system.physmem.perBankRdBursts::5                  83                      
system.physmem.perBankRdBursts::6                  30                      
system.physmem.perBankRdBursts::7                  44                      
system.physmem.perBankRdBursts::8                  86                      
system.physmem.perBankRdBursts::9                 121                      
system.physmem.perBankRdBursts::10                196                      
system.physmem.perBankRdBursts::11                159                      
system.physmem.perBankRdBursts::12                 54                      
system.physmem.perBankRdBursts::13                 55                      
system.physmem.perBankRdBursts::14                 51                      
system.physmem.perBankRdBursts::15                 47                      
system.physmem.perBankWrBursts::0                   0                      
system.physmem.perBankWrBursts::1                   0                      
system.physmem.perBankWrBursts::2                   0                      
system.physmem.perBankWrBursts::3                   0                      
system.physmem.perBankWrBursts::4                   0                      
system.physmem.perBankWrBursts::5                   0                      
system.physmem.perBankWrBursts::6                   0                      
system.physmem.perBankWrBursts::7                   0                      
system.physmem.perBankWrBursts::8                   0                      
system.physmem.perBankWrBursts::9                   0                      
system.physmem.perBankWrBursts::10                  0                      
system.physmem.perBankWrBursts::11                  0                      
system.physmem.perBankWrBursts::12                  0                      
system.physmem.perBankWrBursts::13                  0                      
system.physmem.perBankWrBursts::14                  0                      
system.physmem.perBankWrBursts::15                  0                      
system.physmem.numRdRetry                           0                      
system.physmem.numWrRetry                           0                      
system.physmem.totGap                       178736000                      
system.physmem.readPktSize::0                       0                      
system.physmem.readPktSize::1                       0                      
system.physmem.readPktSize::2                       0                      
system.physmem.readPktSize::3                       0                      
system.physmem.readPktSize::4                       0                      
system.physmem.readPktSize::5                       0                      
system.physmem.readPktSize::6                    1423                      
system.physmem.writePktSize::0                      0                      
system.physmem.writePktSize::1                      0                      
system.physmem.writePktSize::2                      0                      
system.physmem.writePktSize::3                      0                      
system.physmem.writePktSize::4                      0                      
system.physmem.writePktSize::5                      0                      
system.physmem.writePktSize::6                      0                      
system.physmem.rdQLenPdf::0                      1208                      
system.physmem.rdQLenPdf::1                       199                      
system.physmem.rdQLenPdf::2                        16                      
system.physmem.rdQLenPdf::3                         0                      
system.physmem.rdQLenPdf::4                         0                      
system.physmem.rdQLenPdf::5                         0                      
system.physmem.rdQLenPdf::6                         0                      
system.physmem.rdQLenPdf::7                         0                      
system.physmem.rdQLenPdf::8                         0                      
system.physmem.rdQLenPdf::9                         0                      
system.physmem.rdQLenPdf::10                        0                      
system.physmem.rdQLenPdf::11                        0                      
system.physmem.rdQLenPdf::12                        0                      
system.physmem.rdQLenPdf::13                        0                      
system.physmem.rdQLenPdf::14                        0                      
system.physmem.rdQLenPdf::15                        0                      
system.physmem.rdQLenPdf::16                        0                      
system.physmem.rdQLenPdf::17                        0                      
system.physmem.rdQLenPdf::18                        0                      
system.physmem.rdQLenPdf::19                        0                      
system.physmem.rdQLenPdf::20                        0                      
system.physmem.rdQLenPdf::21                        0                      
system.physmem.rdQLenPdf::22                        0                      
system.physmem.rdQLenPdf::23                        0                      
system.physmem.rdQLenPdf::24                        0                      
system.physmem.rdQLenPdf::25                        0                      
system.physmem.rdQLenPdf::26                        0                      
system.physmem.rdQLenPdf::27                        0                      
system.physmem.rdQLenPdf::28                        0                      
system.physmem.rdQLenPdf::29                        0                      
system.physmem.rdQLenPdf::30                        0                      
system.physmem.rdQLenPdf::31                        0                      
system.physmem.wrQLenPdf::0                         0                      
system.physmem.wrQLenPdf::1                         0                      
system.physmem.wrQLenPdf::2                         0                      
system.physmem.wrQLenPdf::3                         0                      
system.physmem.wrQLenPdf::4                         0                      
system.physmem.wrQLenPdf::5                         0                      
system.physmem.wrQLenPdf::6                         0                      
system.physmem.wrQLenPdf::7                         0                      
system.physmem.wrQLenPdf::8                         0                      
system.physmem.wrQLenPdf::9                         0                      
system.physmem.wrQLenPdf::10                        0                      
system.physmem.wrQLenPdf::11                        0                      
system.physmem.wrQLenPdf::12                        0                      
system.physmem.wrQLenPdf::13                        0                      
system.physmem.wrQLenPdf::14                        0                      
system.physmem.wrQLenPdf::15                        0                      
system.physmem.wrQLenPdf::16                        0                      
system.physmem.wrQLenPdf::17                        0                      
system.physmem.wrQLenPdf::18                        0                      
system.physmem.wrQLenPdf::19                        0                      
system.physmem.wrQLenPdf::20                        0                      
system.physmem.wrQLenPdf::21                        0                      
system.physmem.wrQLenPdf::22                        0                      
system.physmem.wrQLenPdf::23                        0                      
system.physmem.wrQLenPdf::24                        0                      
system.physmem.wrQLenPdf::25                        0                      
system.physmem.wrQLenPdf::26                        0                      
system.physmem.wrQLenPdf::27                        0                      
system.physmem.wrQLenPdf::28                        0                      
system.physmem.wrQLenPdf::29                        0                      
system.physmem.wrQLenPdf::30                        0                      
system.physmem.wrQLenPdf::31                        0                      
system.physmem.wrQLenPdf::32                        0                      
system.physmem.wrQLenPdf::33                        0                      
system.physmem.wrQLenPdf::34                        0                      
system.physmem.wrQLenPdf::35                        0                      
system.physmem.wrQLenPdf::36                        0                      
system.physmem.wrQLenPdf::37                        0                      
system.physmem.wrQLenPdf::38                        0                      
system.physmem.wrQLenPdf::39                        0                      
system.physmem.wrQLenPdf::40                        0                      
system.physmem.wrQLenPdf::41                        0                      
system.physmem.wrQLenPdf::42                        0                      
system.physmem.wrQLenPdf::43                        0                      
system.physmem.wrQLenPdf::44                        0                      
system.physmem.wrQLenPdf::45                        0                      
system.physmem.wrQLenPdf::46                        0                      
system.physmem.wrQLenPdf::47                        0                      
system.physmem.wrQLenPdf::48                        0                      
system.physmem.wrQLenPdf::49                        0                      
system.physmem.wrQLenPdf::50                        0                      
system.physmem.wrQLenPdf::51                        0                      
system.physmem.wrQLenPdf::52                        0                      
system.physmem.wrQLenPdf::53                        0                      
system.physmem.wrQLenPdf::54                        0                      
system.physmem.wrQLenPdf::55                        0                      
system.physmem.wrQLenPdf::56                        0                      
system.physmem.wrQLenPdf::57                        0                      
system.physmem.wrQLenPdf::58                        0                      
system.physmem.wrQLenPdf::59                        0                      
system.physmem.wrQLenPdf::60                        0                      
system.physmem.wrQLenPdf::61                        0                      
system.physmem.wrQLenPdf::62                        0                      
system.physmem.wrQLenPdf::63                        0                      
system.physmem.bytesPerActivate::samples          275                      
system.physmem.bytesPerActivate::mean      323.956364                      
system.physmem.bytesPerActivate::gmean     217.706689                      
system.physmem.bytesPerActivate::stdev     284.696685                      
system.physmem.bytesPerActivate::0-127             70     25.45%     25.45%
system.physmem.bytesPerActivate::128-255           67     24.36%     49.82%
system.physmem.bytesPerActivate::256-383           48     17.45%     67.27%
system.physmem.bytesPerActivate::384-511           27      9.82%     77.09%
system.physmem.bytesPerActivate::512-639           17      6.18%     83.27%
system.physmem.bytesPerActivate::640-767           12      4.36%     87.64%
system.physmem.bytesPerActivate::768-895           10      3.64%     91.27%
system.physmem.bytesPerActivate::896-1023            8      2.91%     94.18%
system.physmem.bytesPerActivate::1024-1151           16      5.82%    100.00%
system.physmem.bytesPerActivate::total            275                      
system.physmem.totQLat                       18944000                      
system.physmem.totMemAccLat                  45625250                      
system.physmem.totBusLat                      7115000                      
system.physmem.avgQLat                       13312.72                      
system.physmem.avgBusLat                      5000.00                      
system.physmem.avgMemAccLat                  32062.72                      
system.physmem.avgRdBW                         509.26                      
system.physmem.avgWrBW                           0.00                      
system.physmem.avgRdBWSys                      509.26                      
system.physmem.avgWrBWSys                        0.00                      
system.physmem.peakBW                        12800.00                      
system.physmem.busUtil                           3.98                      
system.physmem.busUtilRead                       3.98                      
system.physmem.busUtilWrite                      0.00                      
system.physmem.avgRdQLen                         1.15                      
system.physmem.avgWrQLen                         0.00                      
system.physmem.readRowHits                       1136                      
system.physmem.writeRowHits                         0                      
system.physmem.readRowHitRate                   79.83                      
system.physmem.writeRowHitRate                    nan                      
system.physmem.avgGap                       125605.06                      
system.physmem.pageHitRate                      79.83                      
system.physmem_0.actEnergy                     842520                      
system.physmem_0.preEnergy                     425040                      
system.physmem_0.readEnergy                   4669560                      
system.physmem_0.writeEnergy                        0                      
system.physmem_0.refreshEnergy           13522080.000000                      
system.physmem_0.actBackEnergy               11426220                      
system.physmem_0.preBackEnergy                 290880                      
system.physmem_0.actPowerDownEnergy          62805450                      
system.physmem_0.prePowerDownEnergy           5869920                      
system.physmem_0.selfRefreshEnergy                  0                      
system.physmem_0.totalEnergy                 99851670                      
system.physmem_0.averagePower              558.353040                      
system.physmem_0.totalIdleTime              152976000                      
system.physmem_0.memoryStateTime::IDLE         138000                      
system.physmem_0.memoryStateTime::REF         5720000                      
system.physmem_0.memoryStateTime::SREF              0                      
system.physmem_0.memoryStateTime::PRE_PDN     15282750                      
system.physmem_0.memoryStateTime::ACT        19952500                      
system.physmem_0.memoryStateTime::ACT_PDN    137739250                      
system.physmem_1.actEnergy                    1206660                      
system.physmem_1.preEnergy                     618585                      
system.physmem_1.readEnergy                   5490660                      
system.physmem_1.writeEnergy                        0                      
system.physmem_1.refreshEnergy           13522080.000000                      
system.physmem_1.actBackEnergy               12331380                      
system.physmem_1.preBackEnergy                 321600                      
system.physmem_1.actPowerDownEnergy          64616910                      
system.physmem_1.prePowerDownEnergy           3551520                      
system.physmem_1.selfRefreshEnergy                  0                      
system.physmem_1.totalEnergy                101659395                      
system.physmem_1.averagePower              568.461521                      
system.physmem_1.totalIdleTime              150791250                      
system.physmem_1.memoryStateTime::IDLE         229500                      
system.physmem_1.memoryStateTime::REF         5720000                      
system.physmem_1.memoryStateTime::SREF              0                      
system.physmem_1.memoryStateTime::PRE_PDN      9246750                      
system.physmem_1.memoryStateTime::ACT        21916500                      
system.physmem_1.memoryStateTime::ACT_PDN    141719750                      
system.pwrStateResidencyTicks::UNDEFINED    178832500                      
system.cpu.branchPred.lookups                   32755                      
system.cpu.branchPred.condPredicted             22498                      
system.cpu.branchPred.condIncorrect              2832                      
system.cpu.branchPred.BTBLookups                24995                      
system.cpu.branchPred.BTBHits                   11489                      
system.cpu.branchPred.BTBCorrect                    0                      
system.cpu.branchPred.BTBHitPct             45.965193                      
system.cpu.branchPred.usedRAS                       0                      
system.cpu.branchPred.RASInCorrect                  0                      
system.cpu.branchPred.indirectLookups            6553                      
system.cpu.branchPred.indirectHits               3276                      
system.cpu.branchPred.indirectMisses             3277                      
system.cpu.branchPredindirectMispredicted         1342                      
system.cpu_clk_domain.clock                       500                      
system.cpu.dtb.read_hits                            0                      
system.cpu.dtb.read_misses                          0                      
system.cpu.dtb.read_accesses                        0                      
system.cpu.dtb.write_hits                           0                      
system.cpu.dtb.write_misses                         0                      
system.cpu.dtb.write_accesses                       0                      
system.cpu.dtb.hits                                 0                      
system.cpu.dtb.misses                               0                      
system.cpu.dtb.accesses                             0                      
system.cpu.itb.read_hits                            0                      
system.cpu.itb.read_misses                          0                      
system.cpu.itb.read_accesses                        0                      
system.cpu.itb.write_hits                           0                      
system.cpu.itb.write_misses                         0                      
system.cpu.itb.write_accesses                       0                      
system.cpu.itb.hits                                 0                      
system.cpu.itb.misses                               0                      
system.cpu.itb.accesses                             0                      
system.cpu.workload.numSyscalls                    43                      
system.cpu.pwrStateResidencyTicks::ON       178832500                      
system.cpu.numCycles                           357665                      
system.cpu.numWorkItemsStarted                      0                      
system.cpu.numWorkItemsCompleted                    0                      
system.cpu.committedInsts                      109515                      
system.cpu.committedOps                        109760                      
system.cpu.discardedOps                          7998                      
system.cpu.numFetchSuspends                         0                      
system.cpu.cpi                               3.265900                      
system.cpu.ipc                               0.306194                      
system.cpu.op_class_0::No_OpClass                  47      0.04%      0.04%
system.cpu.op_class_0::IntAlu                   67322     61.34%     61.38%
system.cpu.op_class_0::IntMult                    107      0.10%     61.48%
system.cpu.op_class_0::IntDiv                       4      0.00%     61.48%
system.cpu.op_class_0::FloatAdd                     0      0.00%     61.48%
system.cpu.op_class_0::FloatCmp                     0      0.00%     61.48%
system.cpu.op_class_0::FloatCvt                     0      0.00%     61.48%
system.cpu.op_class_0::FloatMult                    0      0.00%     61.48%
system.cpu.op_class_0::FloatMultAcc                 0      0.00%     61.48%
system.cpu.op_class_0::FloatDiv                     0      0.00%     61.48%
system.cpu.op_class_0::FloatMisc                    0      0.00%     61.48%
system.cpu.op_class_0::FloatSqrt                    0      0.00%     61.48%
system.cpu.op_class_0::SimdAdd                      0      0.00%     61.48%
system.cpu.op_class_0::SimdAddAcc                   0      0.00%     61.48%
system.cpu.op_class_0::SimdAlu                      0      0.00%     61.48%
system.cpu.op_class_0::SimdCmp                      0      0.00%     61.48%
system.cpu.op_class_0::SimdCvt                      0      0.00%     61.48%
system.cpu.op_class_0::SimdMisc                     0      0.00%     61.48%
system.cpu.op_class_0::SimdMult                     0      0.00%     61.48%
system.cpu.op_class_0::SimdMultAcc                  0      0.00%     61.48%
system.cpu.op_class_0::SimdShift                    0      0.00%     61.48%
system.cpu.op_class_0::SimdShiftAcc                 0      0.00%     61.48%
system.cpu.op_class_0::SimdSqrt                     0      0.00%     61.48%
system.cpu.op_class_0::SimdFloatAdd                 0      0.00%     61.48%
system.cpu.op_class_0::SimdFloatAlu                 0      0.00%     61.48%
system.cpu.op_class_0::SimdFloatCmp                 0      0.00%     61.48%
system.cpu.op_class_0::SimdFloatCvt                 0      0.00%     61.48%
system.cpu.op_class_0::SimdFloatDiv                 0      0.00%     61.48%
system.cpu.op_class_0::SimdFloatMisc                0      0.00%     61.48%
system.cpu.op_class_0::SimdFloatMult                0      0.00%     61.48%
system.cpu.op_class_0::SimdFloatMultAcc             0      0.00%     61.48%
system.cpu.op_class_0::SimdFloatSqrt                0      0.00%     61.48%
system.cpu.op_class_0::MemRead                  25599     23.32%     84.80%
system.cpu.op_class_0::MemWrite                 16669     15.19%     99.99%
system.cpu.op_class_0::FloatMemRead                 0      0.00%     99.99%
system.cpu.op_class_0::FloatMemWrite               12      0.01%    100.00%
system.cpu.op_class_0::IprAccess                    0      0.00%    100.00%
system.cpu.op_class_0::InstPrefetch                 0      0.00%    100.00%
system.cpu.op_class_0::total                   109760                      
system.cpu.tickCycles                          168154                      
system.cpu.idleCycles                          189511                      
system.cpu.fetch2.int_instructions              90704                      
system.cpu.fetch2.fp_instructions                   0                      
system.cpu.fetch2.vec_instructions                  0                      
system.cpu.fetch2.load_instructions             32730                      
system.cpu.fetch2.store_instructions            21693                      
system.cpu.dcache.tags.pwrStateResidencyTicks::UNDEFINED    178832500                      
system.cpu.dcache.tags.replacements                 0                      
system.cpu.dcache.tags.tagsinuse           309.905250                      
system.cpu.dcache.tags.total_refs               42817                      
system.cpu.dcache.tags.sampled_refs               468                      
system.cpu.dcache.tags.avg_refs             91.489316                      
system.cpu.dcache.tags.warmup_cycle            177500                      
system.cpu.dcache.tags.occ_blocks::cpu.data   309.905250                      
system.cpu.dcache.tags.occ_percent::cpu.data     0.075660                      
system.cpu.dcache.tags.occ_percent::total     0.075660                      
system.cpu.dcache.tags.occ_task_id_blocks::1024          468                      
system.cpu.dcache.tags.age_task_id_blocks_1024::0           14                      
system.cpu.dcache.tags.age_task_id_blocks_1024::1          153                      
system.cpu.dcache.tags.age_task_id_blocks_1024::2          301                      
system.cpu.dcache.tags.occ_task_id_percent::1024     0.114258                      
system.cpu.dcache.tags.tag_accesses             87378                      
system.cpu.dcache.tags.data_accesses            87378                      
system.cpu.dcache.pwrStateResidencyTicks::UNDEFINED    178832500                      
system.cpu.dcache.ReadReq_hits::cpu.data        26258                      
system.cpu.dcache.ReadReq_hits::total           26258                      
system.cpu.dcache.WriteReq_hits::cpu.data        16008                      
system.cpu.dcache.WriteReq_hits::total          16008                      
system.cpu.dcache.LoadLockedReq_hits::cpu.data          275                      
system.cpu.dcache.LoadLockedReq_hits::total          275                      
system.cpu.dcache.StoreCondReq_hits::cpu.data          276                      
system.cpu.dcache.StoreCondReq_hits::total          276                      
system.cpu.dcache.demand_hits::cpu.data         42266                      
system.cpu.dcache.demand_hits::total            42266                      
system.cpu.dcache.overall_hits::cpu.data        42266                      
system.cpu.dcache.overall_hits::total           42266                      
system.cpu.dcache.ReadReq_misses::cpu.data          242                      
system.cpu.dcache.ReadReq_misses::total           242                      
system.cpu.dcache.WriteReq_misses::cpu.data          395                      
system.cpu.dcache.WriteReq_misses::total          395                      
system.cpu.dcache.LoadLockedReq_misses::cpu.data            1                      
system.cpu.dcache.LoadLockedReq_misses::total            1                      
system.cpu.dcache.demand_misses::cpu.data          637                      
system.cpu.dcache.demand_misses::total            637                      
system.cpu.dcache.overall_misses::cpu.data          637                      
system.cpu.dcache.overall_misses::total           637                      
system.cpu.dcache.ReadReq_miss_latency::cpu.data     21863500                      
system.cpu.dcache.ReadReq_miss_latency::total     21863500                      
system.cpu.dcache.WriteReq_miss_latency::cpu.data     31459500                      
system.cpu.dcache.WriteReq_miss_latency::total     31459500                      
system.cpu.dcache.LoadLockedReq_miss_latency::cpu.data        86000                      
system.cpu.dcache.LoadLockedReq_miss_latency::total        86000                      
system.cpu.dcache.demand_miss_latency::cpu.data     53323000                      
system.cpu.dcache.demand_miss_latency::total     53323000                      
system.cpu.dcache.overall_miss_latency::cpu.data     53323000                      
system.cpu.dcache.overall_miss_latency::total     53323000                      
system.cpu.dcache.ReadReq_accesses::cpu.data        26500                      
system.cpu.dcache.ReadReq_accesses::total        26500                      
system.cpu.dcache.WriteReq_accesses::cpu.data        16403                      
system.cpu.dcache.WriteReq_accesses::total        16403                      
system.cpu.dcache.LoadLockedReq_accesses::cpu.data          276                      
system.cpu.dcache.LoadLockedReq_accesses::total          276                      
system.cpu.dcache.StoreCondReq_accesses::cpu.data          276                      
system.cpu.dcache.StoreCondReq_accesses::total          276                      
system.cpu.dcache.demand_accesses::cpu.data        42903                      
system.cpu.dcache.demand_accesses::total        42903                      
system.cpu.dcache.overall_accesses::cpu.data        42903                      
system.cpu.dcache.overall_accesses::total        42903                      
system.cpu.dcache.ReadReq_miss_rate::cpu.data     0.009132                      
system.cpu.dcache.ReadReq_miss_rate::total     0.009132                      
system.cpu.dcache.WriteReq_miss_rate::cpu.data     0.024081                      
system.cpu.dcache.WriteReq_miss_rate::total     0.024081                      
system.cpu.dcache.LoadLockedReq_miss_rate::cpu.data     0.003623                      
system.cpu.dcache.LoadLockedReq_miss_rate::total     0.003623                      
system.cpu.dcache.demand_miss_rate::cpu.data     0.014847                      
system.cpu.dcache.demand_miss_rate::total     0.014847                      
system.cpu.dcache.overall_miss_rate::cpu.data     0.014847                      
system.cpu.dcache.overall_miss_rate::total     0.014847                      
system.cpu.dcache.ReadReq_avg_miss_latency::cpu.data 90345.041322                      
system.cpu.dcache.ReadReq_avg_miss_latency::total 90345.041322                      
system.cpu.dcache.WriteReq_avg_miss_latency::cpu.data 79644.303797                      
system.cpu.dcache.WriteReq_avg_miss_latency::total 79644.303797                      
system.cpu.dcache.LoadLockedReq_avg_miss_latency::cpu.data        86000                      
system.cpu.dcache.LoadLockedReq_avg_miss_latency::total        86000                      
system.cpu.dcache.demand_avg_miss_latency::cpu.data 83709.576138                      
system.cpu.dcache.demand_avg_miss_latency::total 83709.576138                      
system.cpu.dcache.overall_avg_miss_latency::cpu.data 83709.576138                      
system.cpu.dcache.overall_avg_miss_latency::total 83709.576138                      
system.cpu.dcache.blocked_cycles::no_mshrs            0                      
system.cpu.dcache.blocked_cycles::no_targets            0                      
system.cpu.dcache.blocked::no_mshrs                 0                      
system.cpu.dcache.blocked::no_targets               0                      
system.cpu.dcache.avg_blocked_cycles::no_mshrs          nan                      
system.cpu.dcache.avg_blocked_cycles::no_targets          nan                      
system.cpu.dcache.ReadReq_mshr_hits::cpu.data            2                      
system.cpu.dcache.ReadReq_mshr_hits::total            2                      
system.cpu.dcache.WriteReq_mshr_hits::cpu.data          168                      
system.cpu.dcache.WriteReq_mshr_hits::total          168                      
system.cpu.dcache.demand_mshr_hits::cpu.data          170                      
system.cpu.dcache.demand_mshr_hits::total          170                      
system.cpu.dcache.overall_mshr_hits::cpu.data          170                      
system.cpu.dcache.overall_mshr_hits::total          170                      
system.cpu.dcache.ReadReq_mshr_misses::cpu.data          240                      
system.cpu.dcache.ReadReq_mshr_misses::total          240                      
system.cpu.dcache.WriteReq_mshr_misses::cpu.data          227                      
system.cpu.dcache.WriteReq_mshr_misses::total          227                      
system.cpu.dcache.LoadLockedReq_mshr_misses::cpu.data            1                      
system.cpu.dcache.LoadLockedReq_mshr_misses::total            1                      
system.cpu.dcache.demand_mshr_misses::cpu.data          467                      
system.cpu.dcache.demand_mshr_misses::total          467                      
system.cpu.dcache.overall_mshr_misses::cpu.data          467                      
system.cpu.dcache.overall_mshr_misses::total          467                      
system.cpu.dcache.ReadReq_mshr_miss_latency::cpu.data     21480000                      
system.cpu.dcache.ReadReq_mshr_miss_latency::total     21480000                      
system.cpu.dcache.WriteReq_mshr_miss_latency::cpu.data     18924500                      
system.cpu.dcache.WriteReq_mshr_miss_latency::total     18924500                      
system.cpu.dcache.LoadLockedReq_mshr_miss_latency::cpu.data        85000                      
system.cpu.dcache.LoadLockedReq_mshr_miss_latency::total        85000                      
system.cpu.dcache.demand_mshr_miss_latency::cpu.data     40404500                      
system.cpu.dcache.demand_mshr_miss_latency::total     40404500                      
system.cpu.dcache.overall_mshr_miss_latency::cpu.data     40404500                      
system.cpu.dcache.overall_mshr_miss_latency::total     40404500                      
system.cpu.dcache.ReadReq_mshr_miss_rate::cpu.data     0.009057                      
system.cpu.dcache.ReadReq_mshr_miss_rate::total     0.009057                      
system.cpu.dcache.WriteReq_mshr_miss_rate::cpu.data     0.013839                      
system.cpu.dcache.WriteReq_mshr_miss_rate::total     0.013839                      
system.cpu.dcache.LoadLockedReq_mshr_miss_rate::cpu.data     0.003623                      
system.cpu.dcache.LoadLockedReq_mshr_miss_rate::total     0.003623                      
system.cpu.dcache.demand_mshr_miss_rate::cpu.data     0.010885                      
system.cpu.dcache.demand_mshr_miss_rate::total     0.010885                      
system.cpu.dcache.overall_mshr_miss_rate::cpu.data     0.010885                      
system.cpu.dcache.overall_mshr_miss_rate::total     0.010885                      
system.cpu.dcache.ReadReq_avg_mshr_miss_latency::cpu.data        89500                      
system.cpu.dcache.ReadReq_avg_mshr_miss_latency::total        89500                      
system.cpu.dcache.WriteReq_avg_mshr_miss_latency::cpu.data 83367.841410                      
system.cpu.dcache.WriteReq_avg_mshr_miss_latency::total 83367.841410                      
system.cpu.dcache.LoadLockedReq_avg_mshr_miss_latency::cpu.data        85000                      
system.cpu.dcache.LoadLockedReq_avg_mshr_miss_latency::total        85000                      
system.cpu.dcache.demand_avg_mshr_miss_latency::cpu.data 86519.271949                      
system.cpu.dcache.demand_avg_mshr_miss_latency::total 86519.271949                      
system.cpu.dcache.overall_avg_mshr_miss_latency::cpu.data 86519.271949                      
system.cpu.dcache.overall_avg_mshr_miss_latency::total 86519.271949                      
system.cpu.icache.tags.pwrStateResidencyTicks::UNDEFINED    178832500                      
system.cpu.icache.tags.replacements                94                      
system.cpu.icache.tags.tagsinuse           512.341265                      
system.cpu.icache.tags.total_refs               44380                      
system.cpu.icache.tags.sampled_refs               963                      
system.cpu.icache.tags.avg_refs             46.085151                      
system.cpu.icache.tags.warmup_cycle             87500                      
system.cpu.icache.tags.occ_blocks::cpu.inst   512.341265                      
system.cpu.icache.tags.occ_percent::cpu.inst     0.250167                      
system.cpu.icache.tags.occ_percent::total     0.250167                      
system.cpu.icache.tags.occ_task_id_blocks::1024          869                      
system.cpu.icache.tags.age_task_id_blocks_1024::0           52                      
system.cpu.icache.tags.age_task_id_blocks_1024::1          440                      
system.cpu.icache.tags.age_task_id_blocks_1024::2          377                      
system.cpu.icache.tags.occ_task_id_percent::1024     0.424316                      
system.cpu.icache.tags.tag_accesses             91651                      
system.cpu.icache.tags.data_accesses            91651                      
system.cpu.icache.pwrStateResidencyTicks::UNDEFINED    178832500                      
system.cpu.icache.ReadReq_hits::cpu.inst        44380                      
system.cpu.icache.ReadReq_hits::total           44380                      
system.cpu.icache.demand_hits::cpu.inst         44380                      
system.cpu.icache.demand_hits::total            44380                      
system.cpu.icache.overall_hits::cpu.inst        44380                      
system.cpu.icache.overall_hits::total           44380                      
system.cpu.icache.ReadReq_misses::cpu.inst          964                      
system.cpu.icache.ReadReq_misses::total           964                      
system.cpu.icache.demand_misses::cpu.inst          964                      
system.cpu.icache.demand_misses::total            964                      
system.cpu.icache.overall_misses::cpu.inst          964                      
system.cpu.icache.overall_misses::total           964                      
system.cpu.icache.ReadReq_miss_latency::cpu.inst     80915000                      
system.cpu.icache.ReadReq_miss_latency::total     80915000                      
system.cpu.icache.demand_miss_latency::cpu.inst     80915000                      
system.cpu.icache.demand_miss_latency::total     80915000                      
system.cpu.icache.overall_miss_latency::cpu.inst     80915000                      
system.cpu.icache.overall_miss_latency::total     80915000                      
system.cpu.icache.ReadReq_accesses::cpu.inst        45344                      
system.cpu.icache.ReadReq_accesses::total        45344                      
system.cpu.icache.demand_accesses::cpu.inst        45344                      
system.cpu.icache.demand_accesses::total        45344                      
system.cpu.icache.overall_accesses::cpu.inst        45344                      
system.cpu.icache.overall_accesses::total        45344                      
system.cpu.icache.ReadReq_miss_rate::cpu.inst     0.021260                      
system.cpu.icache.ReadReq_miss_rate::total     0.021260                      
system.cpu.icache.demand_miss_rate::cpu.inst     0.021260                      
system.cpu.icache.demand_miss_rate::total     0.021260                      
system.cpu.icache.overall_miss_rate::cpu.inst     0.021260                      
system.cpu.icache.overall_miss_rate::total     0.021260                      
system.cpu.icache.ReadReq_avg_miss_latency::cpu.inst 83936.721992                      
system.cpu.icache.ReadReq_avg_miss_latency::total 83936.721992                      
system.cpu.icache.demand_avg_miss_latency::cpu.inst 83936.721992                      
system.cpu.icache.demand_avg_miss_latency::total 83936.721992                      
system.cpu.icache.overall_avg_miss_latency::cpu.inst 83936.721992                      
system.cpu.icache.overall_avg_miss_latency::total 83936.721992                      
system.cpu.icache.blocked_cycles::no_mshrs            0                      
system.cpu.icache.blocked_cycles::no_targets            0                      
system.cpu.icache.blocked::no_mshrs                 0                      
system.cpu.icache.blocked::no_targets               0                      
system.cpu.icache.avg_blocked_cycles::no_mshrs          nan                      
system.cpu.icache.avg_blocked_cycles::no_targets          nan                      
system.cpu.icache.writebacks::writebacks           94                      
system.cpu.icache.writebacks::total                94                      
system.cpu.icache.ReadReq_mshr_misses::cpu.inst          964                      
system.cpu.icache.ReadReq_mshr_misses::total          964                      
system.cpu.icache.demand_mshr_misses::cpu.inst          964                      
system.cpu.icache.demand_mshr_misses::total          964                      
system.cpu.icache.overall_mshr_misses::cpu.inst          964                      
system.cpu.icache.overall_mshr_misses::total          964                      
system.cpu.icache.ReadReq_mshr_miss_latency::cpu.inst     79952000                      
system.cpu.icache.ReadReq_mshr_miss_latency::total     79952000                      
system.cpu.icache.demand_mshr_miss_latency::cpu.inst     79952000                      
system.cpu.icache.demand_mshr_miss_latency::total     79952000                      
system.cpu.icache.overall_mshr_miss_latency::cpu.inst     79952000                      
system.cpu.icache.overall_mshr_miss_latency::total     79952000                      
system.cpu.icache.ReadReq_mshr_miss_rate::cpu.inst     0.021260                      
system.cpu.icache.ReadReq_mshr_miss_rate::total     0.021260                      
system.cpu.icache.demand_mshr_miss_rate::cpu.inst     0.021260                      
system.cpu.icache.demand_mshr_miss_rate::total     0.021260                      
system.cpu.icache.overall_mshr_miss_rate::cpu.inst     0.021260                      
system.cpu.icache.overall_mshr_miss_rate::total     0.021260                      
system.cpu.icache.ReadReq_avg_mshr_miss_latency::cpu.inst 82937.759336                      
system.cpu.icache.ReadReq_avg_mshr_miss_latency::total 82937.759336                      
system.cpu.icache.demand_avg_mshr_miss_latency::cpu.inst 82937.759336                      
system.cpu.icache.demand_avg_mshr_miss_latency::total 82937.759336                      
system.cpu.icache.overall_avg_mshr_miss_latency::cpu.inst 82937.759336                      
system.cpu.icache.overall_avg_mshr_miss_latency::total 82937.759336                      
system.cpu.l2cache.tags.pwrStateResidencyTicks::UNDEFINED    178832500                      
system.cpu.l2cache.tags.replacements                0                      
system.cpu.l2cache.tags.tagsinuse          858.647640                      
system.cpu.l2cache.tags.total_refs                102                      
system.cpu.l2cache.tags.sampled_refs             1423                      
system.cpu.l2cache.tags.avg_refs             0.071680                      
system.cpu.l2cache.tags.warmup_cycle            77000                      
system.cpu.l2cache.tags.occ_blocks::cpu.inst   549.003019                      
system.cpu.l2cache.tags.occ_blocks::cpu.data   309.644621                      
system.cpu.l2cache.tags.occ_percent::cpu.inst     0.016754                      
system.cpu.l2cache.tags.occ_percent::cpu.data     0.009450                      
system.cpu.l2cache.tags.occ_percent::total     0.026204                      
system.cpu.l2cache.tags.occ_task_id_blocks::1024         1423                      
system.cpu.l2cache.tags.age_task_id_blocks_1024::0           65                      
system.cpu.l2cache.tags.age_task_id_blocks_1024::1          591                      
system.cpu.l2cache.tags.age_task_id_blocks_1024::2          767                      
system.cpu.l2cache.tags.occ_task_id_percent::1024     0.043427                      
system.cpu.l2cache.tags.tag_accesses            13631                      
system.cpu.l2cache.tags.data_accesses           13631                      
system.cpu.l2cache.pwrStateResidencyTicks::UNDEFINED    178832500                      
system.cpu.l2cache.WritebackClean_hits::writebacks           94                      
system.cpu.l2cache.WritebackClean_hits::total           94                      
system.cpu.l2cache.ReadCleanReq_hits::cpu.inst            7                      
system.cpu.l2cache.ReadCleanReq_hits::total            7                      
system.cpu.l2cache.ReadSharedReq_hits::cpu.data            1                      
system.cpu.l2cache.ReadSharedReq_hits::total            1                      
system.cpu.l2cache.demand_hits::cpu.inst            7                      
system.cpu.l2cache.demand_hits::cpu.data            1                      
system.cpu.l2cache.demand_hits::total               8                      
system.cpu.l2cache.overall_hits::cpu.inst            7                      
system.cpu.l2cache.overall_hits::cpu.data            1                      
system.cpu.l2cache.overall_hits::total              8                      
system.cpu.l2cache.ReadExReq_misses::cpu.data          227                      
system.cpu.l2cache.ReadExReq_misses::total          227                      
system.cpu.l2cache.ReadCleanReq_misses::cpu.inst          957                      
system.cpu.l2cache.ReadCleanReq_misses::total          957                      
system.cpu.l2cache.ReadSharedReq_misses::cpu.data          240                      
system.cpu.l2cache.ReadSharedReq_misses::total          240                      
system.cpu.l2cache.demand_misses::cpu.inst          957                      
system.cpu.l2cache.demand_misses::cpu.data          467                      
system.cpu.l2cache.demand_misses::total          1424                      
system.cpu.l2cache.overall_misses::cpu.inst          957                      
system.cpu.l2cache.overall_misses::cpu.data          467                      
system.cpu.l2cache.overall_misses::total         1424                      
system.cpu.l2cache.ReadExReq_miss_latency::cpu.data     18582000                      
system.cpu.l2cache.ReadExReq_miss_latency::total     18582000                      
system.cpu.l2cache.ReadCleanReq_miss_latency::cpu.inst     78433500                      
system.cpu.l2cache.ReadCleanReq_miss_latency::total     78433500                      
system.cpu.l2cache.ReadSharedReq_miss_latency::cpu.data     21189500                      
system.cpu.l2cache.ReadSharedReq_miss_latency::total     21189500                      
system.cpu.l2cache.demand_miss_latency::cpu.inst     78433500                      
system.cpu.l2cache.demand_miss_latency::cpu.data     39771500                      
system.cpu.l2cache.demand_miss_latency::total    118205000                      
system.cpu.l2cache.overall_miss_latency::cpu.inst     78433500                      
system.cpu.l2cache.overall_miss_latency::cpu.data     39771500                      
system.cpu.l2cache.overall_miss_latency::total    118205000                      
system.cpu.l2cache.WritebackClean_accesses::writebacks           94                      
system.cpu.l2cache.WritebackClean_accesses::total           94                      
system.cpu.l2cache.ReadExReq_accesses::cpu.data          227                      
system.cpu.l2cache.ReadExReq_accesses::total          227                      
system.cpu.l2cache.ReadCleanReq_accesses::cpu.inst          964                      
system.cpu.l2cache.ReadCleanReq_accesses::total          964                      
system.cpu.l2cache.ReadSharedReq_accesses::cpu.data          241                      
system.cpu.l2cache.ReadSharedReq_accesses::total          241                      
system.cpu.l2cache.demand_accesses::cpu.inst          964                      
system.cpu.l2cache.demand_accesses::cpu.data          468                      
system.cpu.l2cache.demand_accesses::total         1432                      
system.cpu.l2cache.overall_accesses::cpu.inst          964                      
system.cpu.l2cache.overall_accesses::cpu.data          468                      
system.cpu.l2cache.overall_accesses::total         1432                      
system.cpu.l2cache.ReadExReq_miss_rate::cpu.data            1                      
system.cpu.l2cache.ReadExReq_miss_rate::total            1                      
system.cpu.l2cache.ReadCleanReq_miss_rate::cpu.inst     0.992739                      
system.cpu.l2cache.ReadCleanReq_miss_rate::total     0.992739                      
system.cpu.l2cache.ReadSharedReq_miss_rate::cpu.data     0.995851                      
system.cpu.l2cache.ReadSharedReq_miss_rate::total     0.995851                      
system.cpu.l2cache.demand_miss_rate::cpu.inst     0.992739                      
system.cpu.l2cache.demand_miss_rate::cpu.data     0.997863                      
system.cpu.l2cache.demand_miss_rate::total     0.994413                      
system.cpu.l2cache.overall_miss_rate::cpu.inst     0.992739                      
system.cpu.l2cache.overall_miss_rate::cpu.data     0.997863                      
system.cpu.l2cache.overall_miss_rate::total     0.994413                      
system.cpu.l2cache.ReadExReq_avg_miss_latency::cpu.data 81859.030837                      
system.cpu.l2cache.ReadExReq_avg_miss_latency::total 81859.030837                      
system.cpu.l2cache.ReadCleanReq_avg_miss_latency::cpu.inst 81957.680251                      
system.cpu.l2cache.ReadCleanReq_avg_miss_latency::total 81957.680251                      
system.cpu.l2cache.ReadSharedReq_avg_miss_latency::cpu.data 88289.583333                      
system.cpu.l2cache.ReadSharedReq_avg_miss_latency::total 88289.583333                      
system.cpu.l2cache.demand_avg_miss_latency::cpu.inst 81957.680251                      
system.cpu.l2cache.demand_avg_miss_latency::cpu.data 85163.811563                      
system.cpu.l2cache.demand_avg_miss_latency::total 83009.129213                      
system.cpu.l2cache.overall_avg_miss_latency::cpu.inst 81957.680251                      
system.cpu.l2cache.overall_avg_miss_latency::cpu.data 85163.811563                      
system.cpu.l2cache.overall_avg_miss_latency::total 83009.129213                      
system.cpu.l2cache.blocked_cycles::no_mshrs            0                      
system.cpu.l2cache.blocked_cycles::no_targets            0                      
system.cpu.l2cache.blocked::no_mshrs                0                      
system.cpu.l2cache.blocked::no_targets              0                      
system.cpu.l2cache.avg_blocked_cycles::no_mshrs          nan                      
system.cpu.l2cache.avg_blocked_cycles::no_targets          nan                      
system.cpu.l2cache.ReadExReq_mshr_misses::cpu.data          227                      
system.cpu.l2cache.ReadExReq_mshr_misses::total          227                      
system.cpu.l2cache.ReadCleanReq_mshr_misses::cpu.inst          957                      
system.cpu.l2cache.ReadCleanReq_mshr_misses::total          957                      
system.cpu.l2cache.ReadSharedReq_mshr_misses::cpu.data          240                      
system.cpu.l2cache.ReadSharedReq_mshr_misses::total          240                      
system.cpu.l2cache.demand_mshr_misses::cpu.inst          957                      
system.cpu.l2cache.demand_mshr_misses::cpu.data          467                      
system.cpu.l2cache.demand_mshr_misses::total         1424                      
system.cpu.l2cache.overall_mshr_misses::cpu.inst          957                      
system.cpu.l2cache.overall_mshr_misses::cpu.data          467                      
system.cpu.l2cache.overall_mshr_misses::total         1424                      
system.cpu.l2cache.ReadExReq_mshr_miss_latency::cpu.data     16312000                      
system.cpu.l2cache.ReadExReq_mshr_miss_latency::total     16312000                      
system.cpu.l2cache.ReadCleanReq_mshr_miss_latency::cpu.inst     68873500                      
system.cpu.l2cache.ReadCleanReq_mshr_miss_latency::total     68873500                      
system.cpu.l2cache.ReadSharedReq_mshr_miss_latency::cpu.data     18789500                      
system.cpu.l2cache.ReadSharedReq_mshr_miss_latency::total     18789500                      
system.cpu.l2cache.demand_mshr_miss_latency::cpu.inst     68873500                      
system.cpu.l2cache.demand_mshr_miss_latency::cpu.data     35101500                      
system.cpu.l2cache.demand_mshr_miss_latency::total    103975000                      
system.cpu.l2cache.overall_mshr_miss_latency::cpu.inst     68873500                      
system.cpu.l2cache.overall_mshr_miss_latency::cpu.data     35101500                      
system.cpu.l2cache.overall_mshr_miss_latency::total    103975000                      
system.cpu.l2cache.ReadExReq_mshr_miss_rate::cpu.data            1                      
system.cpu.l2cache.ReadExReq_mshr_miss_rate::total            1                      
system.cpu.l2cache.ReadCleanReq_mshr_miss_rate::cpu.inst     0.992739                      
system.cpu.l2cache.ReadCleanReq_mshr_miss_rate::total     0.992739                      
system.cpu.l2cache.ReadSharedReq_mshr_miss_rate::cpu.data     0.995851                      
system.cpu.l2cache.ReadSharedReq_mshr_miss_rate::total     0.995851                      
system.cpu.l2cache.demand_mshr_miss_rate::cpu.inst     0.992739                      
system.cpu.l2cache.demand_mshr_miss_rate::cpu.data     0.997863                      
system.cpu.l2cache.demand_mshr_miss_rate::total     0.994413                      
system.cpu.l2cache.overall_mshr_miss_rate::cpu.inst     0.992739                      
system.cpu.l2cache.overall_mshr_miss_rate::cpu.data     0.997863                      
system.cpu.l2cache.overall_mshr_miss_rate::total     0.994413                      
system.cpu.l2cache.ReadExReq_avg_mshr_miss_latency::cpu.data 71859.030837                      
system.cpu.l2cache.ReadExReq_avg_mshr_miss_latency::total 71859.030837                      
system.cpu.l2cache.ReadCleanReq_avg_mshr_miss_latency::cpu.inst 71968.129572                      
system.cpu.l2cache.ReadCleanReq_avg_mshr_miss_latency::total 71968.129572                      
system.cpu.l2cache.ReadSharedReq_avg_mshr_miss_latency::cpu.data 78289.583333                      
system.cpu.l2cache.ReadSharedReq_avg_mshr_miss_latency::total 78289.583333                      
system.cpu.l2cache.demand_avg_mshr_miss_latency::cpu.inst 71968.129572                      
system.cpu.l2cache.demand_avg_mshr_miss_latency::cpu.data 75163.811563                      
system.cpu.l2cache.demand_avg_mshr_miss_latency::total 73016.151685                      
system.cpu.l2cache.overall_avg_mshr_miss_latency::cpu.inst 71968.129572                      
system.cpu.l2cache.overall_avg_mshr_miss_latency::cpu.data 75163.811563                      
system.cpu.l2cache.overall_avg_mshr_miss_latency::total 73016.151685                      
system.cpu.toL2Bus.snoop_filter.tot_requests         1526                      
system.cpu.toL2Bus.snoop_filter.hit_single_requests           95                      
system.cpu.toL2Bus.snoop_filter.hit_multi_requests            0                      
system.cpu.toL2Bus.snoop_filter.tot_snoops            0                      
system.cpu.toL2Bus.snoop_filter.hit_single_snoops            0                      
system.cpu.toL2Bus.snoop_filter.hit_multi_snoops            0                      
system.cpu.toL2Bus.pwrStateResidencyTicks::UNDEFINED    178832500                      
system.cpu.toL2Bus.trans_dist::ReadResp          1204                      
system.cpu.toL2Bus.trans_dist::WritebackClean           94                      
system.cpu.toL2Bus.trans_dist::ReadExReq          227                      
system.cpu.toL2Bus.trans_dist::ReadExResp          227                      
system.cpu.toL2Bus.trans_dist::ReadCleanReq          964                      
system.cpu.toL2Bus.trans_dist::ReadSharedReq          241                      
system.cpu.toL2Bus.pkt_count_system.cpu.icache.mem_side::system.cpu.l2cache.cpu_side         2021                      
system.cpu.toL2Bus.pkt_count_system.cpu.dcache.mem_side::system.cpu.l2cache.cpu_side          936                      
system.cpu.toL2Bus.pkt_count::total              2957                      
system.cpu.toL2Bus.pkt_size_system.cpu.icache.mem_side::system.cpu.l2cache.cpu_side        67648                      
system.cpu.toL2Bus.pkt_size_system.cpu.dcache.mem_side::system.cpu.l2cache.cpu_side        29952                      
system.cpu.toL2Bus.pkt_size::total              97600                      
system.cpu.toL2Bus.snoops                           0                      
system.cpu.toL2Bus.snoopTraffic                     0                      
system.cpu.toL2Bus.snoop_fanout::samples         1432                      
system.cpu.toL2Bus.snoop_fanout::mean        0.000698                      
system.cpu.toL2Bus.snoop_fanout::stdev       0.026426                      
system.cpu.toL2Bus.snoop_fanout::underflows            0      0.00%      0.00%
system.cpu.toL2Bus.snoop_fanout::0               1431     99.93%     99.93%
system.cpu.toL2Bus.snoop_fanout::1                  1      0.07%    100.00%
system.cpu.toL2Bus.snoop_fanout::2                  0      0.00%    100.00%
system.cpu.toL2Bus.snoop_fanout::overflows            0      0.00%    100.00%
system.cpu.toL2Bus.snoop_fanout::min_value            0                      
system.cpu.toL2Bus.snoop_fanout::max_value            1                      
system.cpu.toL2Bus.snoop_fanout::total           1432                      
system.cpu.toL2Bus.reqLayer0.occupancy         857000                      
system.cpu.toL2Bus.reqLayer0.utilization          0.5                      
system.cpu.toL2Bus.respLayer0.occupancy       1444500                      
system.cpu.toL2Bus.respLayer0.utilization          0.8                      
system.cpu.toL2Bus.respLayer1.occupancy        702000                      
system.cpu.toL2Bus.respLayer1.utilization          0.4                      
system.membus.snoop_filter.tot_requests          1423                      
system.membus.snoop_filter.hit_single_requests            0                      
system.membus.snoop_filter.hit_multi_requests            0                      
system.membus.snoop_filter.tot_snoops               0                      
system.membus.snoop_filter.hit_single_snoops            0                      
system.membus.snoop_filter.hit_multi_snoops            0                      
system.membus.pwrStateResidencyTicks::UNDEFINED    178832500                      
system.membus.trans_dist::ReadResp               1196                      
system.membus.trans_dist::ReadExReq               227                      
system.membus.trans_dist::ReadExResp              227                      
system.membus.trans_dist::ReadSharedReq          1196                      
system.membus.pkt_count_system.cpu.l2cache.mem_side::system.physmem.port         2846                      
system.membus.pkt_count::total                   2846                      
system.membus.pkt_size_system.cpu.l2cache.mem_side::system.physmem.port        91072                      
system.membus.pkt_size::total                   91072                      
system.membus.snoops                                0                      
system.membus.snoopTraffic                          0                      
system.membus.snoop_fanout::samples              1423                      
system.membus.snoop_fanout::mean                    0                      
system.membus.snoop_fanout::stdev                   0                      
system.membus.snoop_fanout::underflows              0      0.00%      0.00%
system.membus.snoop_fanout::0                    1423    100.00%    100.00%
system.membus.snoop_fanout::1                       0      0.00%    100.00%
system.membus.snoop_fanout::overflows               0      0.00%    100.00%
system.membus.snoop_fanout::min_value               0                      
system.membus.snoop_fanout::max_value               0                      
system.membus.snoop_fanout::total                1423                      
system.membus.reqLayer0.occupancy             1638000                      
system.membus.reqLayer0.utilization               0.9                      
system.membus.respLayer1.occupancy            7565500                      
system.membus.respLayer1.utilization              4.2                      

---------- End Simulation Statistics   ----------
