
---------- Begin Simulation Statistics ----------
sim_seconds                                  0.005219                      
sim_ticks                                     5219375                      
final_tick                                    5219375                      
sim_freq                                   1000000000                      
host_inst_rate                                  39820                      
host_op_rate                                    39935                      
host_tick_rate                                 773445                      
host_mem_usage                                 570060                      
host_seconds                                     6.75                      
sim_insts                                      268711                      
sim_ops                                        269486                      
system.voltage_domain.voltage                       1                      
system.clk_domain.clock                             1                      
system.mem_ctrls.pwrStateResidencyTicks::UNDEFINED      5219375                      
system.mem_ctrls.bytes_read::ruby.dir_cntrl0      4923456                      
system.mem_ctrls.bytes_read::total            4923456                      
system.mem_ctrls.bytes_written::ruby.dir_cntrl0      4923200                      
system.mem_ctrls.bytes_written::total         4923200                      
system.mem_ctrls.num_reads::ruby.dir_cntrl0        76929                      
system.mem_ctrls.num_reads::total               76929                      
system.mem_ctrls.num_writes::ruby.dir_cntrl0        76925                      
system.mem_ctrls.num_writes::total              76925                      
system.mem_ctrls.bw_read::ruby.dir_cntrl0    943303748                      
system.mem_ctrls.bw_read::total             943303748                      
system.mem_ctrls.bw_write::ruby.dir_cntrl0    943254700                      
system.mem_ctrls.bw_write::total            943254700                      
system.mem_ctrls.bw_total::ruby.dir_cntrl0   1886558448                      
system.mem_ctrls.bw_total::total           1886558448                      
system.mem_ctrls.readReqs                       76929                      
system.mem_ctrls.writeReqs                      76925                      
system.mem_ctrls.readBursts                     76929                      
system.mem_ctrls.writeBursts                    76925                      
system.mem_ctrls.bytesReadDRAM                2465920                      
system.mem_ctrls.bytesReadWrQ                 2457536                      
system.mem_ctrls.bytesWritten                 2584064                      
system.mem_ctrls.bytesReadSys                 4923456                      
system.mem_ctrls.bytesWrittenSys              4923200                      
system.mem_ctrls.servicedByWrQ                  38399                      
system.mem_ctrls.mergedWrBursts                 36526                      
system.mem_ctrls.neitherReadNorWriteReqs            0                      
system.mem_ctrls.perBankRdBursts::0              9383                      
system.mem_ctrls.perBankRdBursts::1              2034                      
system.mem_ctrls.perBankRdBursts::2               722                      
system.mem_ctrls.perBankRdBursts::3              1417                      
system.mem_ctrls.perBankRdBursts::4              2561                      
system.mem_ctrls.perBankRdBursts::5              5334                      
system.mem_ctrls.perBankRdBursts::6               190                      
system.mem_ctrls.perBankRdBursts::7               152                      
system.mem_ctrls.perBankRdBursts::8                54                      
system.mem_ctrls.perBankRdBursts::9               384                      
system.mem_ctrls.perBankRdBursts::10              830                      
system.mem_ctrls.perBankRdBursts::11             1779                      
system.mem_ctrls.perBankRdBursts::12             4166                      
system.mem_ctrls.perBankRdBursts::13             1804                      
system.mem_ctrls.perBankRdBursts::14             6837                      
system.mem_ctrls.perBankRdBursts::15              883                      
system.mem_ctrls.perBankWrBursts::0             10138                      
system.mem_ctrls.perBankWrBursts::1              2035                      
system.mem_ctrls.perBankWrBursts::2               750                      
system.mem_ctrls.perBankWrBursts::3              1423                      
system.mem_ctrls.perBankWrBursts::4              2594                      
system.mem_ctrls.perBankWrBursts::5              5596                      
system.mem_ctrls.perBankWrBursts::6               197                      
system.mem_ctrls.perBankWrBursts::7               158                      
system.mem_ctrls.perBankWrBursts::8                57                      
system.mem_ctrls.perBankWrBursts::9               383                      
system.mem_ctrls.perBankWrBursts::10              833                      
system.mem_ctrls.perBankWrBursts::11             1872                      
system.mem_ctrls.perBankWrBursts::12             4490                      
system.mem_ctrls.perBankWrBursts::13             1817                      
system.mem_ctrls.perBankWrBursts::14             7122                      
system.mem_ctrls.perBankWrBursts::15              911                      
system.mem_ctrls.numRdRetry                         0                      
system.mem_ctrls.numWrRetry                         0                      
system.mem_ctrls.totGap                       5219293                      
system.mem_ctrls.readPktSize::0                     0                      
system.mem_ctrls.readPktSize::1                     0                      
system.mem_ctrls.readPktSize::2                     0                      
system.mem_ctrls.readPktSize::3                     0                      
system.mem_ctrls.readPktSize::4                     0                      
system.mem_ctrls.readPktSize::5                     0                      
system.mem_ctrls.readPktSize::6                 76929                      
system.mem_ctrls.writePktSize::0                    0                      
system.mem_ctrls.writePktSize::1                    0                      
system.mem_ctrls.writePktSize::2                    0                      
system.mem_ctrls.writePktSize::3                    0                      
system.mem_ctrls.writePktSize::4                    0                      
system.mem_ctrls.writePktSize::5                    0                      
system.mem_ctrls.writePktSize::6                76925                      
system.mem_ctrls.rdQLenPdf::0                   38530                      
system.mem_ctrls.rdQLenPdf::1                       0                      
system.mem_ctrls.rdQLenPdf::2                       0                      
system.mem_ctrls.rdQLenPdf::3                       0                      
system.mem_ctrls.rdQLenPdf::4                       0                      
system.mem_ctrls.rdQLenPdf::5                       0                      
system.mem_ctrls.rdQLenPdf::6                       0                      
system.mem_ctrls.rdQLenPdf::7                       0                      
system.mem_ctrls.rdQLenPdf::8                       0                      
system.mem_ctrls.rdQLenPdf::9                       0                      
system.mem_ctrls.rdQLenPdf::10                      0                      
system.mem_ctrls.rdQLenPdf::11                      0                      
system.mem_ctrls.rdQLenPdf::12                      0                      
system.mem_ctrls.rdQLenPdf::13                      0                      
system.mem_ctrls.rdQLenPdf::14                      0                      
system.mem_ctrls.rdQLenPdf::15                      0                      
system.mem_ctrls.rdQLenPdf::16                      0                      
system.mem_ctrls.rdQLenPdf::17                      0                      
system.mem_ctrls.rdQLenPdf::18                      0                      
system.mem_ctrls.rdQLenPdf::19                      0                      
system.mem_ctrls.rdQLenPdf::20                      0                      
system.mem_ctrls.rdQLenPdf::21                      0                      
system.mem_ctrls.rdQLenPdf::22                      0                      
system.mem_ctrls.rdQLenPdf::23                      0                      
system.mem_ctrls.rdQLenPdf::24                      0                      
system.mem_ctrls.rdQLenPdf::25                      0                      
system.mem_ctrls.rdQLenPdf::26                      0                      
system.mem_ctrls.rdQLenPdf::27                      0                      
system.mem_ctrls.rdQLenPdf::28                      0                      
system.mem_ctrls.rdQLenPdf::29                      0                      
system.mem_ctrls.rdQLenPdf::30                      0                      
system.mem_ctrls.rdQLenPdf::31                      0                      
system.mem_ctrls.wrQLenPdf::0                       1                      
system.mem_ctrls.wrQLenPdf::1                       1                      
system.mem_ctrls.wrQLenPdf::2                       1                      
system.mem_ctrls.wrQLenPdf::3                       1                      
system.mem_ctrls.wrQLenPdf::4                       1                      
system.mem_ctrls.wrQLenPdf::5                       1                      
system.mem_ctrls.wrQLenPdf::6                       1                      
system.mem_ctrls.wrQLenPdf::7                       1                      
system.mem_ctrls.wrQLenPdf::8                       1                      
system.mem_ctrls.wrQLenPdf::9                       1                      
system.mem_ctrls.wrQLenPdf::10                      1                      
system.mem_ctrls.wrQLenPdf::11                      1                      
system.mem_ctrls.wrQLenPdf::12                      1                      
system.mem_ctrls.wrQLenPdf::13                      1                      
system.mem_ctrls.wrQLenPdf::14                      1                      
system.mem_ctrls.wrQLenPdf::15                    371                      
system.mem_ctrls.wrQLenPdf::16                    446                      
system.mem_ctrls.wrQLenPdf::17                   2126                      
system.mem_ctrls.wrQLenPdf::18                   2498                      
system.mem_ctrls.wrQLenPdf::19                   2513                      
system.mem_ctrls.wrQLenPdf::20                   2615                      
system.mem_ctrls.wrQLenPdf::21                   2671                      
system.mem_ctrls.wrQLenPdf::22                   2566                      
system.mem_ctrls.wrQLenPdf::23                   2467                      
system.mem_ctrls.wrQLenPdf::24                   2458                      
system.mem_ctrls.wrQLenPdf::25                   2456                      
system.mem_ctrls.wrQLenPdf::26                   2459                      
system.mem_ctrls.wrQLenPdf::27                   2457                      
system.mem_ctrls.wrQLenPdf::28                   2456                      
system.mem_ctrls.wrQLenPdf::29                   2456                      
system.mem_ctrls.wrQLenPdf::30                   2457                      
system.mem_ctrls.wrQLenPdf::31                   2456                      
system.mem_ctrls.wrQLenPdf::32                   2456                      
system.mem_ctrls.wrQLenPdf::33                      0                      
system.mem_ctrls.wrQLenPdf::34                      0                      
system.mem_ctrls.wrQLenPdf::35                      0                      
system.mem_ctrls.wrQLenPdf::36                      0                      
system.mem_ctrls.wrQLenPdf::37                      0                      
system.mem_ctrls.wrQLenPdf::38                      0                      
system.mem_ctrls.wrQLenPdf::39                      0                      
system.mem_ctrls.wrQLenPdf::40                      0                      
system.mem_ctrls.wrQLenPdf::41                      0                      
system.mem_ctrls.wrQLenPdf::42                      0                      
system.mem_ctrls.wrQLenPdf::43                      0                      
system.mem_ctrls.wrQLenPdf::44                      0                      
system.mem_ctrls.wrQLenPdf::45                      0                      
system.mem_ctrls.wrQLenPdf::46                      0                      
system.mem_ctrls.wrQLenPdf::47                      0                      
system.mem_ctrls.wrQLenPdf::48                      0                      
system.mem_ctrls.wrQLenPdf::49                      0                      
system.mem_ctrls.wrQLenPdf::50                      0                      
system.mem_ctrls.wrQLenPdf::51                      0                      
system.mem_ctrls.wrQLenPdf::52                      0                      
system.mem_ctrls.wrQLenPdf::53                      0                      
system.mem_ctrls.wrQLenPdf::54                      0                      
system.mem_ctrls.wrQLenPdf::55                      0                      
system.mem_ctrls.wrQLenPdf::56                      0                      
system.mem_ctrls.wrQLenPdf::57                      0                      
system.mem_ctrls.wrQLenPdf::58                      0                      
system.mem_ctrls.wrQLenPdf::59                      0                      
system.mem_ctrls.wrQLenPdf::60                      0                      
system.mem_ctrls.wrQLenPdf::61                      0                      
system.mem_ctrls.wrQLenPdf::62                      0                      
system.mem_ctrls.wrQLenPdf::63                      0                      
system.mem_ctrls.bytesPerActivate::samples        20092                      
system.mem_ctrls.bytesPerActivate::mean    251.282500                      
system.mem_ctrls.bytesPerActivate::gmean   173.468362                      
system.mem_ctrls.bytesPerActivate::stdev   233.307224                      
system.mem_ctrls.bytesPerActivate::0-127         6188     30.80%     30.80%
system.mem_ctrls.bytesPerActivate::128-255         6009     29.91%     60.71%
system.mem_ctrls.bytesPerActivate::256-383         3031     15.09%     75.79%
system.mem_ctrls.bytesPerActivate::384-511         1969      9.80%     85.59%
system.mem_ctrls.bytesPerActivate::512-639         1136      5.65%     91.25%
system.mem_ctrls.bytesPerActivate::640-767          536      2.67%     93.91%
system.mem_ctrls.bytesPerActivate::768-895          427      2.13%     96.04%
system.mem_ctrls.bytesPerActivate::896-1023          217      1.08%     97.12%
system.mem_ctrls.bytesPerActivate::1024-1151          579      2.88%    100.00%
system.mem_ctrls.bytesPerActivate::total        20092                      
system.mem_ctrls.rdPerTurnAround::samples         2456                      
system.mem_ctrls.rdPerTurnAround::mean      15.684039                      
system.mem_ctrls.rdPerTurnAround::gmean     15.616991                      
system.mem_ctrls.rdPerTurnAround::stdev      1.477987                      
system.mem_ctrls.rdPerTurnAround::12-13           135      5.50%      5.50%
system.mem_ctrls.rdPerTurnAround::14-15          1024     41.69%     47.19%
system.mem_ctrls.rdPerTurnAround::16-17          1037     42.22%     89.41%
system.mem_ctrls.rdPerTurnAround::18-19           243      9.89%     99.31%
system.mem_ctrls.rdPerTurnAround::20-21            16      0.65%     99.96%
system.mem_ctrls.rdPerTurnAround::34-35             1      0.04%    100.00%
system.mem_ctrls.rdPerTurnAround::total          2456                      
system.mem_ctrls.wrPerTurnAround::samples         2456                      
system.mem_ctrls.wrPerTurnAround::mean      16.439739                      
system.mem_ctrls.wrPerTurnAround::gmean     16.412526                      
system.mem_ctrls.wrPerTurnAround::stdev      0.982345                      
system.mem_ctrls.wrPerTurnAround::16             2003     81.56%     81.56%
system.mem_ctrls.wrPerTurnAround::17               60      2.44%     84.00%
system.mem_ctrls.wrPerTurnAround::18              178      7.25%     91.25%
system.mem_ctrls.wrPerTurnAround::19              198      8.06%     99.31%
system.mem_ctrls.wrPerTurnAround::20               15      0.61%     99.92%
system.mem_ctrls.wrPerTurnAround::21                2      0.08%    100.00%
system.mem_ctrls.wrPerTurnAround::total          2456                      
system.mem_ctrls.totQLat                       848050                      
system.mem_ctrls.totMemAccLat                 1580120                      
system.mem_ctrls.totBusLat                     192650                      
system.mem_ctrls.avgQLat                        22.01                      
system.mem_ctrls.avgBusLat                       5.00                      
system.mem_ctrls.avgMemAccLat                   41.01                      
system.mem_ctrls.avgRdBW                       472.46                      
system.mem_ctrls.avgWrBW                       495.09                      
system.mem_ctrls.avgRdBWSys                    943.30                      
system.mem_ctrls.avgWrBWSys                    943.25                      
system.mem_ctrls.peakBW                      12800.00                      
system.mem_ctrls.busUtil                         7.56                      
system.mem_ctrls.busUtilRead                     3.69                      
system.mem_ctrls.busUtilWrite                    3.87                      
system.mem_ctrls.avgRdQLen                       1.00                      
system.mem_ctrls.avgWrQLen                      25.88                      
system.mem_ctrls.readRowHits                    23318                      
system.mem_ctrls.writeRowHits                   35489                      
system.mem_ctrls.readRowHitRate                 60.52                      
system.mem_ctrls.writeRowHitRate                87.85                      
system.mem_ctrls.avgGap                         33.92                      
system.mem_ctrls.pageHitRate                    74.51                      
system.mem_ctrls_0.actEnergy                 72435300                      
system.mem_ctrls_0.preEnergy                 39192552                      
system.mem_ctrls_0.readEnergy               248963232                      
system.mem_ctrls_0.writeEnergy              191185632                      
system.mem_ctrls_0.refreshEnergy         405662400.000000                      
system.mem_ctrls_0.actBackEnergy            634977264                      
system.mem_ctrls_0.preBackEnergy             10396800                      
system.mem_ctrls_0.actPowerDownEnergy      1637224680                      
system.mem_ctrls_0.prePowerDownEnergy        42140160                      
system.mem_ctrls_0.selfRefreshEnergy         25575360                      
system.mem_ctrls_0.totalEnergy             3307753380                      
system.mem_ctrls_0.averagePower            633.745109                      
system.mem_ctrls_0.totalIdleTime              3799513                      
system.mem_ctrls_0.memoryStateTime::IDLE         4132                      
system.mem_ctrls_0.memoryStateTime::REF        171618                      
system.mem_ctrls_0.memoryStateTime::SREF        99661                      
system.mem_ctrls_0.memoryStateTime::PRE_PDN       109740                      
system.mem_ctrls_0.memoryStateTime::ACT       1243819                      
system.mem_ctrls_0.memoryStateTime::ACT_PDN      3590405                      
system.mem_ctrls_1.actEnergy                 71071560                      
system.mem_ctrls_1.preEnergy                 38442936                      
system.mem_ctrls_1.readEnergy               191203488                      
system.mem_ctrls_1.writeEnergy              146034720                      
system.mem_ctrls_1.refreshEnergy         412423440.000000                      
system.mem_ctrls_1.actBackEnergy            609414816                      
system.mem_ctrls_1.preBackEnergy              9426816                      
system.mem_ctrls_1.actPowerDownEnergy      1669074456                      
system.mem_ctrls_1.prePowerDownEnergy        68987136                      
system.mem_ctrls_1.selfRefreshEnergy          6645360                      
system.mem_ctrls_1.totalEnergy             3222749712                      
system.mem_ctrls_1.averagePower            617.458932                      
system.mem_ctrls_1.totalIdleTime              3858300                      
system.mem_ctrls_1.memoryStateTime::IDLE         5144                      
system.mem_ctrls_1.memoryStateTime::REF        174484                      
system.mem_ctrls_1.memoryStateTime::SREF        18428                      
system.mem_ctrls_1.memoryStateTime::PRE_PDN       179654                      
system.mem_ctrls_1.memoryStateTime::ACT       1181414                      
system.mem_ctrls_1.memoryStateTime::ACT_PDN      3660251                      
system.pwrStateResidencyTicks::UNDEFINED      5219375                      
system.cpu.clk_domain.clock                         1                      
system.cpu.dtb.read_hits                            0                      
system.cpu.dtb.read_misses                          0                      
system.cpu.dtb.read_accesses                        0                      
system.cpu.dtb.write_hits                           0                      
system.cpu.dtb.write_misses                         0                      
system.cpu.dtb.write_accesses                       0                      
system.cpu.dtb.hits                                 0                      
system.cpu.dtb.misses                               0                      
system.cpu.dtb.accesses                             0                      
system.cpu.itb.read_hits                            0                      
system.cpu.itb.read_misses                          0                      
system.cpu.itb.read_accesses                        0                      
system.cpu.itb.write_hits                           0                      
system.cpu.itb.write_misses                         0                      
system.cpu.itb.write_accesses                       0                      
system.cpu.itb.hits                                 0                      
system.cpu.itb.misses                               0                      
system.cpu.itb.accesses                             0                      
system.cpu.workload.numSyscalls                   183                      
system.cpu.pwrStateResidencyTicks::ON         5219375                      
system.cpu.numCycles                          5219375                      
system.cpu.numWorkItemsStarted                      0                      
system.cpu.numWorkItemsCompleted                    0                      
system.cpu.committedInsts                      268711                      
system.cpu.committedOps                        269486                      
system.cpu.num_int_alu_accesses                268060                      
system.cpu.num_fp_alu_accesses                     12                      
system.cpu.num_vec_alu_accesses                     0                      
system.cpu.num_func_calls                       15774                      
system.cpu.num_conditional_control_insts        41513                      
system.cpu.num_int_insts                       268060                      
system.cpu.num_fp_insts                            12                      
system.cpu.num_vec_insts                            0                      
system.cpu.num_int_register_reads              336777                      
system.cpu.num_int_register_writes             179503                      
system.cpu.num_fp_register_reads                   12                      
system.cpu.num_fp_register_writes                   0                      
system.cpu.num_vec_register_reads                   0                      
system.cpu.num_vec_register_writes                  0                      
system.cpu.num_mem_refs                        110038                      
system.cpu.num_load_insts                       68243                      
system.cpu.num_store_insts                      41795                      
system.cpu.num_idle_cycles                          0                      
system.cpu.num_busy_cycles                    5219375                      
system.cpu.not_idle_fraction                        1                      
system.cpu.idle_fraction                            0                      
system.cpu.Branches                             57287                      
system.cpu.op_class::No_OpClass                   192      0.07%      0.07%
system.cpu.op_class::IntAlu                    158730     58.86%     58.93%
system.cpu.op_class::IntMult                      439      0.16%     59.10%
system.cpu.op_class::IntDiv                       270      0.10%     59.20%
system.cpu.op_class::FloatAdd                       0      0.00%     59.20%
system.cpu.op_class::FloatCmp                       0      0.00%     59.20%
system.cpu.op_class::FloatCvt                       0      0.00%     59.20%
system.cpu.op_class::FloatMult                      0      0.00%     59.20%
system.cpu.op_class::FloatMultAcc                   0      0.00%     59.20%
system.cpu.op_class::FloatDiv                       0      0.00%     59.20%
system.cpu.op_class::FloatMisc                      0      0.00%     59.20%
system.cpu.op_class::FloatSqrt                      0      0.00%     59.20%
system.cpu.op_class::SimdAdd                        0      0.00%     59.20%
system.cpu.op_class::SimdAddAcc                     0      0.00%     59.20%
system.cpu.op_class::SimdAlu                        0      0.00%     59.20%
system.cpu.op_class::SimdCmp                        0      0.00%     59.20%
system.cpu.op_class::SimdCvt                        0      0.00%     59.20%
system.cpu.op_class::SimdMisc                       0      0.00%     59.20%
system.cpu.op_class::SimdMult                       0      0.00%     59.20%
system.cpu.op_class::SimdMultAcc                    0      0.00%     59.20%
system.cpu.op_class::SimdShift                      0      0.00%     59.20%
system.cpu.op_class::SimdShiftAcc                   0      0.00%     59.20%
system.cpu.op_class::SimdSqrt                       0      0.00%     59.20%
system.cpu.op_class::SimdFloatAdd                   0      0.00%     59.20%
system.cpu.op_class::SimdFloatAlu                   0      0.00%     59.20%
system.cpu.op_class::SimdFloatCmp                   0      0.00%     59.20%
system.cpu.op_class::SimdFloatCvt                   0      0.00%     59.20%
system.cpu.op_class::SimdFloatDiv                   0      0.00%     59.20%
system.cpu.op_class::SimdFloatMisc                  0      0.00%     59.20%
system.cpu.op_class::SimdFloatMult                  0      0.00%     59.20%
system.cpu.op_class::SimdFloatMultAcc               0      0.00%     59.20%
system.cpu.op_class::SimdFloatSqrt                  0      0.00%     59.20%
system.cpu.op_class::MemRead                    68243     25.31%     84.50%
system.cpu.op_class::MemWrite                   41783     15.49%    100.00%
system.cpu.op_class::FloatMemRead                   0      0.00%    100.00%
system.cpu.op_class::FloatMemWrite                 12      0.00%    100.00%
system.cpu.op_class::IprAccess                      0      0.00%    100.00%
system.cpu.op_class::InstPrefetch                   0      0.00%    100.00%
system.cpu.op_class::total                     269669                      
system.ruby.clk_domain.clock                        1                      
system.ruby.pwrStateResidencyTicks::UNDEFINED      5219375                      
system.ruby.delayHist::bucket_size                  1                      
system.ruby.delayHist::max_bucket                   9                      
system.ruby.delayHist::samples                 153854                      
system.ruby.delayHist                    |      153854    100.00%    100.00% |           0      0.00%    100.00% |           0      0.00%    100.00% |           0      0.00%    100.00% |           0      0.00%    100.00% |           0      0.00%    100.00% |           0      0.00%    100.00% |           0      0.00%    100.00% |           0      0.00%    100.00% |           0      0.00%    100.00%
system.ruby.delayHist::total                   153854                      
system.ruby.outstanding_req_hist_seqr::bucket_size            1                      
system.ruby.outstanding_req_hist_seqr::max_bucket            9                      
system.ruby.outstanding_req_hist_seqr::samples       434587                      
system.ruby.outstanding_req_hist_seqr::mean            1                      
system.ruby.outstanding_req_hist_seqr::gmean            1                      
system.ruby.outstanding_req_hist_seqr    |           0      0.00%      0.00% |      434587    100.00%    100.00% |           0      0.00%    100.00% |           0      0.00%    100.00% |           0      0.00%    100.00% |           0      0.00%    100.00% |           0      0.00%    100.00% |           0      0.00%    100.00% |           0      0.00%    100.00% |           0      0.00%    100.00%
system.ruby.outstanding_req_hist_seqr::total       434587                      
system.ruby.latency_hist_seqr::bucket_size           64                      
system.ruby.latency_hist_seqr::max_bucket          639                      
system.ruby.latency_hist_seqr::samples         434586                      
system.ruby.latency_hist_seqr::mean         11.009993                      
system.ruby.latency_hist_seqr::gmean         2.000094                      
system.ruby.latency_hist_seqr::stdev        26.598816                      
system.ruby.latency_hist_seqr            |      397127     91.38%     91.38% |       34878      8.03%     99.41% |        1631      0.38%     99.78% |         407      0.09%     99.88% |         303      0.07%     99.94% |         219      0.05%    100.00% |          14      0.00%    100.00% |           2      0.00%    100.00% |           0      0.00%    100.00% |           5      0.00%    100.00%
system.ruby.latency_hist_seqr::total           434586                      
system.ruby.hit_latency_hist_seqr::bucket_size            1                      
system.ruby.hit_latency_hist_seqr::max_bucket            9                      
system.ruby.hit_latency_hist_seqr::samples       357657                      
system.ruby.hit_latency_hist_seqr::mean             1                      
system.ruby.hit_latency_hist_seqr::gmean            1                      
system.ruby.hit_latency_hist_seqr        |           0      0.00%      0.00% |      357657    100.00%    100.00% |           0      0.00%    100.00% |           0      0.00%    100.00% |           0      0.00%    100.00% |           0      0.00%    100.00% |           0      0.00%    100.00% |           0      0.00%    100.00% |           0      0.00%    100.00% |           0      0.00%    100.00%
system.ruby.hit_latency_hist_seqr::total       357657                      
system.ruby.miss_latency_hist_seqr::bucket_size           64                      
system.ruby.miss_latency_hist_seqr::max_bucket          639                      
system.ruby.miss_latency_hist_seqr::samples        76929                      
system.ruby.miss_latency_hist_seqr::mean    57.548285                      
system.ruby.miss_latency_hist_seqr::gmean    50.198319                      
system.ruby.miss_latency_hist_seqr::stdev    36.947640                      
system.ruby.miss_latency_hist_seqr       |       39470     51.31%     51.31% |       34878     45.34%     96.64% |        1631      2.12%     98.77% |         407      0.53%     99.29% |         303      0.39%     99.69% |         219      0.28%     99.97% |          14      0.02%     99.99% |           2      0.00%     99.99% |           0      0.00%     99.99% |           5      0.01%    100.00%
system.ruby.miss_latency_hist_seqr::total        76929                      
system.ruby.Directory.incomplete_times_seqr        76928                      
system.ruby.dir_cntrl0.forwardFromDir.avg_buf_msgs     0.014738                      
system.ruby.dir_cntrl0.forwardFromDir.avg_stall_time     0.999931                      
system.ruby.dir_cntrl0.requestToDir.avg_buf_msgs     0.029477                      
system.ruby.dir_cntrl0.requestToDir.avg_stall_time    11.763905                      
system.ruby.dir_cntrl0.responseFromDir.avg_buf_msgs     0.014739                      
system.ruby.dir_cntrl0.responseFromDir.avg_stall_time     0.999987                      
system.ruby.dir_cntrl0.responseFromMemory.avg_buf_msgs     0.029477                      
system.ruby.dir_cntrl0.responseFromMemory.avg_stall_time     0.999987                      
system.ruby.dir_cntrl0.pwrStateResidencyTicks::UNDEFINED      5219375                      
system.ruby.l1_cntrl0.cacheMemory.demand_hits       357657                      
system.ruby.l1_cntrl0.cacheMemory.demand_misses        76929                      
system.ruby.l1_cntrl0.cacheMemory.demand_accesses       434586                      
system.ruby.l1_cntrl0.forwardToCache.avg_buf_msgs     0.014738                      
system.ruby.l1_cntrl0.forwardToCache.avg_stall_time     6.999506                      
system.ruby.l1_cntrl0.mandatoryQueue.avg_buf_msgs     0.083264                      
system.ruby.l1_cntrl0.mandatoryQueue.avg_stall_time     1.000000                      
system.ruby.l1_cntrl0.requestFromCache.avg_buf_msgs     0.058955                      
system.ruby.l1_cntrl0.requestFromCache.avg_stall_time     1.999999                      
system.ruby.l1_cntrl0.responseToCache.avg_buf_msgs     0.014739                      
system.ruby.l1_cntrl0.responseToCache.avg_stall_time     6.999899                      
system.ruby.l1_cntrl0.sequencer.pwrStateResidencyTicks::UNDEFINED      5219375                      
system.ruby.l1_cntrl0.pwrStateResidencyTicks::UNDEFINED      5219375                      
system.ruby.memctrl_clk_domain.clock                3                      
system.ruby.network.routers0.port_buffers03.avg_buf_msgs     0.014738                      
system.ruby.network.routers0.port_buffers03.avg_stall_time     5.999578                      
system.ruby.network.routers0.port_buffers04.avg_buf_msgs     0.014739                      
system.ruby.network.routers0.port_buffers04.avg_stall_time     5.999915                      
system.ruby.network.routers0.port_buffers07.avg_buf_msgs     0.088431                      
system.ruby.network.routers0.port_buffers07.avg_stall_time     6.763920                      
system.ruby.network.routers0.pwrStateResidencyTicks::UNDEFINED      5219375                      
system.ruby.network.routers0.percent_links_utilized     7.369369                      
system.ruby.network.routers0.msg_count.Control::2        76929                      
system.ruby.network.routers0.msg_count.Data::2        76925                      
system.ruby.network.routers0.msg_count.Response_Data::4        76929                      
system.ruby.network.routers0.msg_count.Writeback_Control::3        76925                      
system.ruby.network.routers0.msg_bytes.Control::2       615432                      
system.ruby.network.routers0.msg_bytes.Data::2      5538600                      
system.ruby.network.routers0.msg_bytes.Response_Data::4      5538888                      
system.ruby.network.routers0.msg_bytes.Writeback_Control::3       615400                      
system.ruby.network.routers1.port_buffers02.avg_buf_msgs     0.029477                      
system.ruby.network.routers1.port_buffers02.avg_stall_time    10.763909                      
system.ruby.network.routers1.port_buffers06.avg_buf_msgs     0.014738                      
system.ruby.network.routers1.port_buffers06.avg_stall_time     1.999861                      
system.ruby.network.routers1.port_buffers07.avg_buf_msgs     0.014739                      
system.ruby.network.routers1.port_buffers07.avg_stall_time     1.999973                      
system.ruby.network.routers1.pwrStateResidencyTicks::UNDEFINED      5219375                      
system.ruby.network.routers1.percent_links_utilized     7.369369                      
system.ruby.network.routers1.msg_count.Control::2        76929                      
system.ruby.network.routers1.msg_count.Data::2        76925                      
system.ruby.network.routers1.msg_count.Response_Data::4        76929                      
system.ruby.network.routers1.msg_count.Writeback_Control::3        76925                      
system.ruby.network.routers1.msg_bytes.Control::2       615432                      
system.ruby.network.routers1.msg_bytes.Data::2      5538600                      
system.ruby.network.routers1.msg_bytes.Response_Data::4      5538888                      
system.ruby.network.routers1.msg_bytes.Writeback_Control::3       615400                      
system.ruby.network.int_link_buffers02.avg_buf_msgs     0.029477                      
system.ruby.network.int_link_buffers02.avg_stall_time     7.763918                      
system.ruby.network.int_link_buffers08.avg_buf_msgs     0.014738                      
system.ruby.network.int_link_buffers08.avg_stall_time     2.999791                      
system.ruby.network.int_link_buffers09.avg_buf_msgs     0.014739                      
system.ruby.network.int_link_buffers09.avg_stall_time     2.999959                      
system.ruby.network.int_link_buffers13.avg_buf_msgs     0.014738                      
system.ruby.network.int_link_buffers13.avg_stall_time     4.999649                      
system.ruby.network.int_link_buffers14.avg_buf_msgs     0.014739                      
system.ruby.network.int_link_buffers14.avg_stall_time     4.999930                      
system.ruby.network.int_link_buffers17.avg_buf_msgs     0.029477                      
system.ruby.network.int_link_buffers17.avg_stall_time     9.763912                      
system.ruby.network.routers2.port_buffers03.avg_buf_msgs     0.014738                      
system.ruby.network.routers2.port_buffers03.avg_stall_time     3.999720                      
system.ruby.network.routers2.port_buffers04.avg_buf_msgs     0.014739                      
system.ruby.network.routers2.port_buffers04.avg_stall_time     3.999945                      
system.ruby.network.routers2.port_buffers07.avg_buf_msgs     0.029477                      
system.ruby.network.routers2.port_buffers07.avg_stall_time     8.763915                      
system.ruby.network.routers2.pwrStateResidencyTicks::UNDEFINED      5219375                      
system.ruby.network.routers2.percent_links_utilized     7.369369                      
system.ruby.network.routers2.msg_count.Control::2        76929                      
system.ruby.network.routers2.msg_count.Data::2        76925                      
system.ruby.network.routers2.msg_count.Response_Data::4        76929                      
system.ruby.network.routers2.msg_count.Writeback_Control::3        76925                      
system.ruby.network.routers2.msg_bytes.Control::2       615432                      
system.ruby.network.routers2.msg_bytes.Data::2      5538600                      
system.ruby.network.routers2.msg_bytes.Response_Data::4      5538888                      
system.ruby.network.routers2.msg_bytes.Writeback_Control::3       615400                      
system.ruby.network.pwrStateResidencyTicks::UNDEFINED      5219375                      
system.ruby.network.msg_count.Control          230787                      
system.ruby.network.msg_count.Data             230775                      
system.ruby.network.msg_count.Response_Data       230787                      
system.ruby.network.msg_count.Writeback_Control       230775                      
system.ruby.network.msg_byte.Control          1846296                      
system.ruby.network.msg_byte.Data            16615800                      
system.ruby.network.msg_byte.Response_Data     16616664                      
system.ruby.network.msg_byte.Writeback_Control      1846200                      
system.sys_port_proxy.pwrStateResidencyTicks::UNDEFINED      5219375                      
system.ruby.network.routers0.throttle0.link_utilization     7.369522                      
system.ruby.network.routers0.throttle0.msg_count.Response_Data::4        76929                      
system.ruby.network.routers0.throttle0.msg_count.Writeback_Control::3        76925                      
system.ruby.network.routers0.throttle0.msg_bytes.Response_Data::4      5538888                      
system.ruby.network.routers0.throttle0.msg_bytes.Writeback_Control::3       615400                      
system.ruby.network.routers0.throttle1.link_utilization     7.369216                      
system.ruby.network.routers0.throttle1.msg_count.Control::2        76929                      
system.ruby.network.routers0.throttle1.msg_count.Data::2        76925                      
system.ruby.network.routers0.throttle1.msg_bytes.Control::2       615432                      
system.ruby.network.routers0.throttle1.msg_bytes.Data::2      5538600                      
system.ruby.network.routers1.throttle0.link_utilization     7.369216                      
system.ruby.network.routers1.throttle0.msg_count.Control::2        76929                      
system.ruby.network.routers1.throttle0.msg_count.Data::2        76925                      
system.ruby.network.routers1.throttle0.msg_bytes.Control::2       615432                      
system.ruby.network.routers1.throttle0.msg_bytes.Data::2      5538600                      
system.ruby.network.routers1.throttle1.link_utilization     7.369522                      
system.ruby.network.routers1.throttle1.msg_count.Response_Data::4        76929                      
system.ruby.network.routers1.throttle1.msg_count.Writeback_Control::3        76925                      
system.ruby.network.routers1.throttle1.msg_bytes.Response_Data::4      5538888                      
system.ruby.network.routers1.throttle1.msg_bytes.Writeback_Control::3       615400                      
system.ruby.network.routers2.throttle0.link_utilization     7.369522                      
system.ruby.network.routers2.throttle0.msg_count.Response_Data::4        76929                      
system.ruby.network.routers2.throttle0.msg_count.Writeback_Control::3        76925                      
system.ruby.network.routers2.throttle0.msg_bytes.Response_Data::4      5538888                      
system.ruby.network.routers2.throttle0.msg_bytes.Writeback_Control::3       615400                      
system.ruby.network.routers2.throttle1.link_utilization     7.369216                      
system.ruby.network.routers2.throttle1.msg_count.Control::2        76929                      
system.ruby.network.routers2.throttle1.msg_count.Data::2        76925                      
system.ruby.network.routers2.throttle1.msg_bytes.Control::2       615432                      
system.ruby.network.routers2.throttle1.msg_bytes.Data::2      5538600                      
system.ruby.delayVCHist.vnet_1::bucket_size            1                      
system.ruby.delayVCHist.vnet_1::max_bucket            9                      
system.ruby.delayVCHist.vnet_1::samples         76929                      
system.ruby.delayVCHist.vnet_1           |       76929    100.00%    100.00% |           0      0.00%    100.00% |           0      0.00%    100.00% |           0      0.00%    100.00% |           0      0.00%    100.00% |           0      0.00%    100.00% |           0      0.00%    100.00% |           0      0.00%    100.00% |           0      0.00%    100.00% |           0      0.00%    100.00%
system.ruby.delayVCHist.vnet_1::total           76929                      
system.ruby.delayVCHist.vnet_2::bucket_size            1                      
system.ruby.delayVCHist.vnet_2::max_bucket            9                      
system.ruby.delayVCHist.vnet_2::samples         76925                      
system.ruby.delayVCHist.vnet_2           |       76925    100.00%    100.00% |           0      0.00%    100.00% |           0      0.00%    100.00% |           0      0.00%    100.00% |           0      0.00%    100.00% |           0      0.00%    100.00% |           0      0.00%    100.00% |           0      0.00%    100.00% |           0      0.00%    100.00% |           0      0.00%    100.00%
system.ruby.delayVCHist.vnet_2::total           76925                      
system.ruby.LD.latency_hist_seqr::bucket_size           64                      
system.ruby.LD.latency_hist_seqr::max_bucket          639                      
system.ruby.LD.latency_hist_seqr::samples        67459                      
system.ruby.LD.latency_hist_seqr::mean      28.988941                      
system.ruby.LD.latency_hist_seqr::gmean      7.823349                      
system.ruby.LD.latency_hist_seqr::stdev     36.243393                      
system.ruby.LD.latency_hist_seqr         |       52979     78.54%     78.54% |       13522     20.04%     98.58% |         625      0.93%     99.51% |         136      0.20%     99.71% |         114      0.17%     99.88% |          78      0.12%     99.99% |           5      0.01%    100.00% |           0      0.00%    100.00% |           0      0.00%    100.00% |           0      0.00%    100.00%
system.ruby.LD.latency_hist_seqr::total         67459                      
system.ruby.LD.hit_latency_hist_seqr::bucket_size            1                      
system.ruby.LD.hit_latency_hist_seqr::max_bucket            9                      
system.ruby.LD.hit_latency_hist_seqr::samples        31332                      
system.ruby.LD.hit_latency_hist_seqr::mean            1                      
system.ruby.LD.hit_latency_hist_seqr::gmean            1                      
system.ruby.LD.hit_latency_hist_seqr     |           0      0.00%      0.00% |       31332    100.00%    100.00% |           0      0.00%    100.00% |           0      0.00%    100.00% |           0      0.00%    100.00% |           0      0.00%    100.00% |           0      0.00%    100.00% |           0      0.00%    100.00% |           0      0.00%    100.00% |           0      0.00%    100.00%
system.ruby.LD.hit_latency_hist_seqr::total        31332                      
system.ruby.LD.miss_latency_hist_seqr::bucket_size           64                      
system.ruby.LD.miss_latency_hist_seqr::max_bucket          639                      
system.ruby.LD.miss_latency_hist_seqr::samples        36127                      
system.ruby.LD.miss_latency_hist_seqr::mean    53.263017                      
system.ruby.LD.miss_latency_hist_seqr::gmean    46.581001                      
system.ruby.LD.miss_latency_hist_seqr::stdev    34.411917                      
system.ruby.LD.miss_latency_hist_seqr    |       21647     59.92%     59.92% |       13522     37.43%     97.35% |         625      1.73%     99.08% |         136      0.38%     99.45% |         114      0.32%     99.77% |          78      0.22%     99.99% |           5      0.01%    100.00% |           0      0.00%    100.00% |           0      0.00%    100.00% |           0      0.00%    100.00%
system.ruby.LD.miss_latency_hist_seqr::total        36127                      
system.ruby.ST.latency_hist_seqr::bucket_size           64                      
system.ruby.ST.latency_hist_seqr::max_bucket          639                      
system.ruby.ST.latency_hist_seqr::samples        41011                      
system.ruby.ST.latency_hist_seqr::mean      14.694326                      
system.ruby.ST.latency_hist_seqr::gmean      2.944070                      
system.ruby.ST.latency_hist_seqr::stdev     28.408036                      
system.ruby.ST.latency_hist_seqr         |       37687     91.89%     91.89% |        3018      7.36%     99.25% |         205      0.50%     99.75% |          50      0.12%     99.88% |          24      0.06%     99.93% |          19      0.05%     99.98% |           3      0.01%     99.99% |           2      0.00%     99.99% |           0      0.00%     99.99% |           3      0.01%    100.00%
system.ruby.ST.latency_hist_seqr::total         41011                      
system.ruby.ST.hit_latency_hist_seqr::bucket_size            1                      
system.ruby.ST.hit_latency_hist_seqr::max_bucket            9                      
system.ruby.ST.hit_latency_hist_seqr::samples        29180                      
system.ruby.ST.hit_latency_hist_seqr::mean            1                      
system.ruby.ST.hit_latency_hist_seqr::gmean            1                      
system.ruby.ST.hit_latency_hist_seqr     |           0      0.00%      0.00% |       29180    100.00%    100.00% |           0      0.00%    100.00% |           0      0.00%    100.00% |           0      0.00%    100.00% |           0      0.00%    100.00% |           0      0.00%    100.00% |           0      0.00%    100.00% |           0      0.00%    100.00% |           0      0.00%    100.00%
system.ruby.ST.hit_latency_hist_seqr::total        29180                      
system.ruby.ST.miss_latency_hist_seqr::bucket_size           64                      
system.ruby.ST.miss_latency_hist_seqr::max_bucket          639                      
system.ruby.ST.miss_latency_hist_seqr::samples        11831                      
system.ruby.ST.miss_latency_hist_seqr::mean    48.470036                      
system.ruby.ST.miss_latency_hist_seqr::gmean    42.224332                      
system.ruby.ST.miss_latency_hist_seqr::stdev    34.556359                      
system.ruby.ST.miss_latency_hist_seqr    |        8507     71.90%     71.90% |        3018     25.51%     97.41% |         205      1.73%     99.15% |          50      0.42%     99.57% |          24      0.20%     99.77% |          19      0.16%     99.93% |           3      0.03%     99.96% |           2      0.02%     99.97% |           0      0.00%     99.97% |           3      0.03%    100.00%
system.ruby.ST.miss_latency_hist_seqr::total        11831                      
system.ruby.IFETCH.latency_hist_seqr::bucket_size           64                      
system.ruby.IFETCH.latency_hist_seqr::max_bucket          639                      
system.ruby.IFETCH.latency_hist_seqr::samples       324548                      
system.ruby.IFETCH.latency_hist_seqr::mean     6.854989                      
system.ruby.IFETCH.latency_hist_seqr::gmean     1.439267                      
system.ruby.IFETCH.latency_hist_seqr::stdev    22.038327                      
system.ruby.IFETCH.latency_hist_seqr     |      304895     93.94%     93.94% |       18336      5.65%     99.59% |         801      0.25%     99.84% |         221      0.07%     99.91% |         165      0.05%     99.96% |         122      0.04%    100.00% |           6      0.00%    100.00% |           0      0.00%    100.00% |           0      0.00%    100.00% |           2      0.00%    100.00%
system.ruby.IFETCH.latency_hist_seqr::total       324548                      
system.ruby.IFETCH.hit_latency_hist_seqr::bucket_size            1                      
system.ruby.IFETCH.hit_latency_hist_seqr::max_bucket            9                      
system.ruby.IFETCH.hit_latency_hist_seqr::samples       295582                      
system.ruby.IFETCH.hit_latency_hist_seqr::mean            1                      
system.ruby.IFETCH.hit_latency_hist_seqr::gmean            1                      
system.ruby.IFETCH.hit_latency_hist_seqr |           0      0.00%      0.00% |      295582    100.00%    100.00% |           0      0.00%    100.00% |           0      0.00%    100.00% |           0      0.00%    100.00% |           0      0.00%    100.00% |           0      0.00%    100.00% |           0      0.00%    100.00% |           0      0.00%    100.00% |           0      0.00%    100.00%
system.ruby.IFETCH.hit_latency_hist_seqr::total       295582                      
system.ruby.IFETCH.miss_latency_hist_seqr::bucket_size           64                      
system.ruby.IFETCH.miss_latency_hist_seqr::max_bucket          639                      
system.ruby.IFETCH.miss_latency_hist_seqr::samples        28966                      
system.ruby.IFETCH.miss_latency_hist_seqr::mean    66.601913                      
system.ruby.IFETCH.miss_latency_hist_seqr::gmean    59.140669                      
system.ruby.IFETCH.miss_latency_hist_seqr::stdev    39.017776                      
system.ruby.IFETCH.miss_latency_hist_seqr |        9313     32.15%     32.15% |       18336     63.30%     95.45% |         801      2.77%     98.22% |         221      0.76%     98.98% |         165      0.57%     99.55% |         122      0.42%     99.97% |           6      0.02%     99.99% |           0      0.00%     99.99% |           0      0.00%     99.99% |           2      0.01%    100.00%
system.ruby.IFETCH.miss_latency_hist_seqr::total        28966                      
system.ruby.Load_Linked.latency_hist_seqr::bucket_size            8                      
system.ruby.Load_Linked.latency_hist_seqr::max_bucket           79                      
system.ruby.Load_Linked.latency_hist_seqr::samples          784                      
system.ruby.Load_Linked.latency_hist_seqr::mean     1.323980                      
system.ruby.Load_Linked.latency_hist_seqr::gmean     1.025121                      
system.ruby.Load_Linked.latency_hist_seqr::stdev     4.251318                      
system.ruby.Load_Linked.latency_hist_seqr |         779     99.36%     99.36% |           0      0.00%     99.36% |           0      0.00%     99.36% |           0      0.00%     99.36% |           2      0.26%     99.62% |           0      0.00%     99.62% |           0      0.00%     99.62% |           1      0.13%     99.74% |           2      0.26%    100.00% |           0      0.00%    100.00%
system.ruby.Load_Linked.latency_hist_seqr::total          784                      
system.ruby.Load_Linked.hit_latency_hist_seqr::bucket_size            1                      
system.ruby.Load_Linked.hit_latency_hist_seqr::max_bucket            9                      
system.ruby.Load_Linked.hit_latency_hist_seqr::samples          779                      
system.ruby.Load_Linked.hit_latency_hist_seqr::mean            1                      
system.ruby.Load_Linked.hit_latency_hist_seqr::gmean            1                      
system.ruby.Load_Linked.hit_latency_hist_seqr |           0      0.00%      0.00% |         779    100.00%    100.00% |           0      0.00%    100.00% |           0      0.00%    100.00% |           0      0.00%    100.00% |           0      0.00%    100.00% |           0      0.00%    100.00% |           0      0.00%    100.00% |           0      0.00%    100.00% |           0      0.00%    100.00%
system.ruby.Load_Linked.hit_latency_hist_seqr::total          779                      
system.ruby.Load_Linked.miss_latency_hist_seqr::bucket_size            8                      
system.ruby.Load_Linked.miss_latency_hist_seqr::max_bucket           79                      
system.ruby.Load_Linked.miss_latency_hist_seqr::samples            5                      
system.ruby.Load_Linked.miss_latency_hist_seqr::mean    51.800000                      
system.ruby.Load_Linked.miss_latency_hist_seqr::gmean    48.927822                      
system.ruby.Load_Linked.miss_latency_hist_seqr::stdev    18.240066                      
system.ruby.Load_Linked.miss_latency_hist_seqr |           0      0.00%      0.00% |           0      0.00%      0.00% |           0      0.00%      0.00% |           0      0.00%      0.00% |           2     40.00%     40.00% |           0      0.00%     40.00% |           0      0.00%     40.00% |           1     20.00%     60.00% |           2     40.00%    100.00% |           0      0.00%    100.00%
system.ruby.Load_Linked.miss_latency_hist_seqr::total            5                      
system.ruby.Store_Conditional.latency_hist_seqr::bucket_size            1                      
system.ruby.Store_Conditional.latency_hist_seqr::max_bucket            9                      
system.ruby.Store_Conditional.latency_hist_seqr::samples          784                      
system.ruby.Store_Conditional.latency_hist_seqr::mean            1                      
system.ruby.Store_Conditional.latency_hist_seqr::gmean            1                      
system.ruby.Store_Conditional.latency_hist_seqr |           0      0.00%      0.00% |         784    100.00%    100.00% |           0      0.00%    100.00% |           0      0.00%    100.00% |           0      0.00%    100.00% |           0      0.00%    100.00% |           0      0.00%    100.00% |           0      0.00%    100.00% |           0      0.00%    100.00% |           0      0.00%    100.00%
system.ruby.Store_Conditional.latency_hist_seqr::total          784                      
system.ruby.Store_Conditional.hit_latency_hist_seqr::bucket_size            1                      
system.ruby.Store_Conditional.hit_latency_hist_seqr::max_bucket            9                      
system.ruby.Store_Conditional.hit_latency_hist_seqr::samples          784                      
system.ruby.Store_Conditional.hit_latency_hist_seqr::mean            1                      
system.ruby.Store_Conditional.hit_latency_hist_seqr::gmean            1                      
system.ruby.Store_Conditional.hit_latency_hist_seqr |           0      0.00%      0.00% |         784    100.00%    100.00% |           0      0.00%    100.00% |           0      0.00%    100.00% |           0      0.00%    100.00% |           0      0.00%    100.00% |           0      0.00%    100.00% |           0      0.00%    100.00% |           0      0.00%    100.00% |           0      0.00%    100.00%
system.ruby.Store_Conditional.hit_latency_hist_seqr::total          784                      
system.ruby.Directory.miss_mach_latency_hist_seqr::bucket_size           64                      
system.ruby.Directory.miss_mach_latency_hist_seqr::max_bucket          639                      
system.ruby.Directory.miss_mach_latency_hist_seqr::samples        76929                      
system.ruby.Directory.miss_mach_latency_hist_seqr::mean    57.548285                      
system.ruby.Directory.miss_mach_latency_hist_seqr::gmean    50.198319                      
system.ruby.Directory.miss_mach_latency_hist_seqr::stdev    36.947640                      
system.ruby.Directory.miss_mach_latency_hist_seqr |       39470     51.31%     51.31% |       34878     45.34%     96.64% |        1631      2.12%     98.77% |         407      0.53%     99.29% |         303      0.39%     99.69% |         219      0.28%     99.97% |          14      0.02%     99.99% |           2      0.00%     99.99% |           0      0.00%     99.99% |           5      0.01%    100.00%
system.ruby.Directory.miss_mach_latency_hist_seqr::total        76929                      
system.ruby.Directory.miss_latency_hist_seqr.issue_to_initial_request::bucket_size            1                      
system.ruby.Directory.miss_latency_hist_seqr.issue_to_initial_request::max_bucket            9                      
system.ruby.Directory.miss_latency_hist_seqr.issue_to_initial_request::samples            1                      
system.ruby.Directory.miss_latency_hist_seqr.issue_to_initial_request::stdev          nan                      
system.ruby.Directory.miss_latency_hist_seqr.issue_to_initial_request |           1    100.00%    100.00% |           0      0.00%    100.00% |           0      0.00%    100.00% |           0      0.00%    100.00% |           0      0.00%    100.00% |           0      0.00%    100.00% |           0      0.00%    100.00% |           0      0.00%    100.00% |           0      0.00%    100.00% |           0      0.00%    100.00%
system.ruby.Directory.miss_latency_hist_seqr.issue_to_initial_request::total            1                      
system.ruby.Directory.miss_latency_hist_seqr.initial_to_forward::bucket_size            1                      
system.ruby.Directory.miss_latency_hist_seqr.initial_to_forward::max_bucket            9                      
system.ruby.Directory.miss_latency_hist_seqr.initial_to_forward::samples            1                      
system.ruby.Directory.miss_latency_hist_seqr.initial_to_forward::stdev          nan                      
system.ruby.Directory.miss_latency_hist_seqr.initial_to_forward |           1    100.00%    100.00% |           0      0.00%    100.00% |           0      0.00%    100.00% |           0      0.00%    100.00% |           0      0.00%    100.00% |           0      0.00%    100.00% |           0      0.00%    100.00% |           0      0.00%    100.00% |           0      0.00%    100.00% |           0      0.00%    100.00%
system.ruby.Directory.miss_latency_hist_seqr.initial_to_forward::total            1                      
system.ruby.Directory.miss_latency_hist_seqr.forward_to_first_response::bucket_size            1                      
system.ruby.Directory.miss_latency_hist_seqr.forward_to_first_response::max_bucket            9                      
system.ruby.Directory.miss_latency_hist_seqr.forward_to_first_response::samples            1                      
system.ruby.Directory.miss_latency_hist_seqr.forward_to_first_response::stdev          nan                      
system.ruby.Directory.miss_latency_hist_seqr.forward_to_first_response |           1    100.00%    100.00% |           0      0.00%    100.00% |           0      0.00%    100.00% |           0      0.00%    100.00% |           0      0.00%    100.00% |           0      0.00%    100.00% |           0      0.00%    100.00% |           0      0.00%    100.00% |           0      0.00%    100.00% |           0      0.00%    100.00%
system.ruby.Directory.miss_latency_hist_seqr.forward_to_first_response::total            1                      
system.ruby.Directory.miss_latency_hist_seqr.first_response_to_completion::bucket_size            8                      
system.ruby.Directory.miss_latency_hist_seqr.first_response_to_completion::max_bucket           79                      
system.ruby.Directory.miss_latency_hist_seqr.first_response_to_completion::samples            1                      
system.ruby.Directory.miss_latency_hist_seqr.first_response_to_completion::mean           75                      
system.ruby.Directory.miss_latency_hist_seqr.first_response_to_completion::gmean    75.000000                      
system.ruby.Directory.miss_latency_hist_seqr.first_response_to_completion::stdev          nan                      
system.ruby.Directory.miss_latency_hist_seqr.first_response_to_completion |           0      0.00%      0.00% |           0      0.00%      0.00% |           0      0.00%      0.00% |           0      0.00%      0.00% |           0      0.00%      0.00% |           0      0.00%      0.00% |           0      0.00%      0.00% |           0      0.00%      0.00% |           0      0.00%      0.00% |           1    100.00%    100.00%
system.ruby.Directory.miss_latency_hist_seqr.first_response_to_completion::total            1                      
system.ruby.LD.Directory.miss_type_mach_latency_hist_seqr::bucket_size           64                      
system.ruby.LD.Directory.miss_type_mach_latency_hist_seqr::max_bucket          639                      
system.ruby.LD.Directory.miss_type_mach_latency_hist_seqr::samples        36127                      
system.ruby.LD.Directory.miss_type_mach_latency_hist_seqr::mean    53.263017                      
system.ruby.LD.Directory.miss_type_mach_latency_hist_seqr::gmean    46.581001                      
system.ruby.LD.Directory.miss_type_mach_latency_hist_seqr::stdev    34.411917                      
system.ruby.LD.Directory.miss_type_mach_latency_hist_seqr |       21647     59.92%     59.92% |       13522     37.43%     97.35% |         625      1.73%     99.08% |         136      0.38%     99.45% |         114      0.32%     99.77% |          78      0.22%     99.99% |           5      0.01%    100.00% |           0      0.00%    100.00% |           0      0.00%    100.00% |           0      0.00%    100.00%
system.ruby.LD.Directory.miss_type_mach_latency_hist_seqr::total        36127                      
system.ruby.ST.Directory.miss_type_mach_latency_hist_seqr::bucket_size           64                      
system.ruby.ST.Directory.miss_type_mach_latency_hist_seqr::max_bucket          639                      
system.ruby.ST.Directory.miss_type_mach_latency_hist_seqr::samples        11831                      
system.ruby.ST.Directory.miss_type_mach_latency_hist_seqr::mean    48.470036                      
system.ruby.ST.Directory.miss_type_mach_latency_hist_seqr::gmean    42.224332                      
system.ruby.ST.Directory.miss_type_mach_latency_hist_seqr::stdev    34.556359                      
system.ruby.ST.Directory.miss_type_mach_latency_hist_seqr |        8507     71.90%     71.90% |        3018     25.51%     97.41% |         205      1.73%     99.15% |          50      0.42%     99.57% |          24      0.20%     99.77% |          19      0.16%     99.93% |           3      0.03%     99.96% |           2      0.02%     99.97% |           0      0.00%     99.97% |           3      0.03%    100.00%
system.ruby.ST.Directory.miss_type_mach_latency_hist_seqr::total        11831                      
system.ruby.IFETCH.Directory.miss_type_mach_latency_hist_seqr::bucket_size           64                      
system.ruby.IFETCH.Directory.miss_type_mach_latency_hist_seqr::max_bucket          639                      
system.ruby.IFETCH.Directory.miss_type_mach_latency_hist_seqr::samples        28966                      
system.ruby.IFETCH.Directory.miss_type_mach_latency_hist_seqr::mean    66.601913                      
system.ruby.IFETCH.Directory.miss_type_mach_latency_hist_seqr::gmean    59.140669                      
system.ruby.IFETCH.Directory.miss_type_mach_latency_hist_seqr::stdev    39.017776                      
system.ruby.IFETCH.Directory.miss_type_mach_latency_hist_seqr |        9313     32.15%     32.15% |       18336     63.30%     95.45% |         801      2.77%     98.22% |         221      0.76%     98.98% |         165      0.57%     99.55% |         122      0.42%     99.97% |           6      0.02%     99.99% |           0      0.00%     99.99% |           0      0.00%     99.99% |           2      0.01%    100.00%
system.ruby.IFETCH.Directory.miss_type_mach_latency_hist_seqr::total        28966                      
system.ruby.Load_Linked.Directory.miss_type_mach_latency_hist_seqr::bucket_size            8                      
system.ruby.Load_Linked.Directory.miss_type_mach_latency_hist_seqr::max_bucket           79                      
system.ruby.Load_Linked.Directory.miss_type_mach_latency_hist_seqr::samples            5                      
system.ruby.Load_Linked.Directory.miss_type_mach_latency_hist_seqr::mean    51.800000                      
system.ruby.Load_Linked.Directory.miss_type_mach_latency_hist_seqr::gmean    48.927822                      
system.ruby.Load_Linked.Directory.miss_type_mach_latency_hist_seqr::stdev    18.240066                      
system.ruby.Load_Linked.Directory.miss_type_mach_latency_hist_seqr |           0      0.00%      0.00% |           0      0.00%      0.00% |           0      0.00%      0.00% |           0      0.00%      0.00% |           2     40.00%     40.00% |           0      0.00%     40.00% |           0      0.00%     40.00% |           1     20.00%     60.00% |           2     40.00%    100.00% |           0      0.00%    100.00%
system.ruby.Load_Linked.Directory.miss_type_mach_latency_hist_seqr::total            5                      
system.ruby.Directory_Controller.GETX           76929      0.00%      0.00%
system.ruby.Directory_Controller.PUTX           76925      0.00%      0.00%
system.ruby.Directory_Controller.Memory_Data        76929      0.00%      0.00%
system.ruby.Directory_Controller.Memory_Ack        76925      0.00%      0.00%
system.ruby.Directory_Controller.I.GETX         76929      0.00%      0.00%
system.ruby.Directory_Controller.M.PUTX         76925      0.00%      0.00%
system.ruby.Directory_Controller.IM.Memory_Data        76929      0.00%      0.00%
system.ruby.Directory_Controller.MI.Memory_Ack        76925      0.00%      0.00%
system.ruby.L1Cache_Controller.Load             67459      0.00%      0.00%
system.ruby.L1Cache_Controller.Ifetch          324548      0.00%      0.00%
system.ruby.L1Cache_Controller.Store            42579      0.00%      0.00%
system.ruby.L1Cache_Controller.Data             76929      0.00%      0.00%
system.ruby.L1Cache_Controller.Replacement        76925      0.00%      0.00%
system.ruby.L1Cache_Controller.Writeback_Ack        76925      0.00%      0.00%
system.ruby.L1Cache_Controller.I.Load           36127      0.00%      0.00%
system.ruby.L1Cache_Controller.I.Ifetch         28966      0.00%      0.00%
system.ruby.L1Cache_Controller.I.Store          11836      0.00%      0.00%
system.ruby.L1Cache_Controller.M.Load           31332      0.00%      0.00%
system.ruby.L1Cache_Controller.M.Ifetch        295582      0.00%      0.00%
system.ruby.L1Cache_Controller.M.Store          30743      0.00%      0.00%
system.ruby.L1Cache_Controller.M.Replacement        76925      0.00%      0.00%
system.ruby.L1Cache_Controller.MI.Writeback_Ack        76925      0.00%      0.00%
system.ruby.L1Cache_Controller.IS.Data          65093      0.00%      0.00%
system.ruby.L1Cache_Controller.IM.Data          11836      0.00%      0.00%

---------- End Simulation Statistics   ----------
