Redirecting stdout to build/RISCV/tests/opt/quick/se/00.hello/riscv/linux/simple-atomic/simout
Redirecting stderr to build/RISCV/tests/opt/quick/se/00.hello/riscv/linux/simple-atomic/simerr
gem5 Simulator System.  http://gem5.org
gem5 is copyrighted software; use the --copyright option for details.

gem5 compiled Apr 12 2018 13:22:10
gem5 started Apr 12 2018 13:22:44
gem5 executing on localvm.commsolid.com, pid 1303
command line: /home/rscheffel/projects/gem5_cc/build/RISCV/gem5.opt -d build/RISCV/tests/opt/quick/se/00.hello/riscv/linux/simple-atomic --stats-file 'text://stats.txt?desc=False' -re /home/rscheffel/projects/gem5_cc/tests/testing/../run.py quick/se/00.hello/riscv/linux/simple-atomic

Global frequency set at 1000000000000 ticks per second
Hello world!
Exiting @ tick 3308500 because exiting with last active thread context
