
---------- Begin Simulation Statistics ----------
sim_seconds                                  0.000037                      
sim_ticks                                    36883000                      
final_tick                                   36883000                      
sim_freq                                 1000000000000                      
host_inst_rate                                  97219                      
host_op_rate                                    97336                      
host_tick_rate                              642688584                      
host_mem_usage                                 391272                      
host_seconds                                     0.06                      
sim_insts                                        5571                      
sim_ops                                          5580                      
system.voltage_domain.voltage                       1                      
system.clk_domain.clock                          1000                      
system.physmem.pwrStateResidencyTicks::UNDEFINED     36883000                      
system.physmem.bytes_read::cpu.inst             20864                      
system.physmem.bytes_read::cpu.data              9344                      
system.physmem.bytes_read::total                30208                      
system.physmem.bytes_inst_read::cpu.inst        20864                      
system.physmem.bytes_inst_read::total           20864                      
system.physmem.num_reads::cpu.inst                326                      
system.physmem.num_reads::cpu.data                146                      
system.physmem.num_reads::total                   472                      
system.physmem.bw_read::cpu.inst            565680666                      
system.physmem.bw_read::cpu.data            253341648                      
system.physmem.bw_read::total               819022314                      
system.physmem.bw_inst_read::cpu.inst       565680666                      
system.physmem.bw_inst_read::total          565680666                      
system.physmem.bw_total::cpu.inst           565680666                      
system.physmem.bw_total::cpu.data           253341648                      
system.physmem.bw_total::total              819022314                      
system.physmem.readReqs                           472                      
system.physmem.writeReqs                            0                      
system.physmem.readBursts                         472                      
system.physmem.writeBursts                          0                      
system.physmem.bytesReadDRAM                    30208                      
system.physmem.bytesReadWrQ                         0                      
system.physmem.bytesWritten                         0                      
system.physmem.bytesReadSys                     30208                      
system.physmem.bytesWrittenSys                      0                      
system.physmem.servicedByWrQ                        0                      
system.physmem.mergedWrBursts                       0                      
system.physmem.neitherReadNorWriteReqs              0                      
system.physmem.perBankRdBursts::0                  31                      
system.physmem.perBankRdBursts::1                   0                      
system.physmem.perBankRdBursts::2                  34                      
system.physmem.perBankRdBursts::3                  21                      
system.physmem.perBankRdBursts::4                  68                      
system.physmem.perBankRdBursts::5                  91                      
system.physmem.perBankRdBursts::6                  70                      
system.physmem.perBankRdBursts::7                  58                      
system.physmem.perBankRdBursts::8                  57                      
system.physmem.perBankRdBursts::9                  33                      
system.physmem.perBankRdBursts::10                  0                      
system.physmem.perBankRdBursts::11                  3                      
system.physmem.perBankRdBursts::12                  4                      
system.physmem.perBankRdBursts::13                  1                      
system.physmem.perBankRdBursts::14                  1                      
system.physmem.perBankRdBursts::15                  0                      
system.physmem.perBankWrBursts::0                   0                      
system.physmem.perBankWrBursts::1                   0                      
system.physmem.perBankWrBursts::2                   0                      
system.physmem.perBankWrBursts::3                   0                      
system.physmem.perBankWrBursts::4                   0                      
system.physmem.perBankWrBursts::5                   0                      
system.physmem.perBankWrBursts::6                   0                      
system.physmem.perBankWrBursts::7                   0                      
system.physmem.perBankWrBursts::8                   0                      
system.physmem.perBankWrBursts::9                   0                      
system.physmem.perBankWrBursts::10                  0                      
system.physmem.perBankWrBursts::11                  0                      
system.physmem.perBankWrBursts::12                  0                      
system.physmem.perBankWrBursts::13                  0                      
system.physmem.perBankWrBursts::14                  0                      
system.physmem.perBankWrBursts::15                  0                      
system.physmem.numRdRetry                           0                      
system.physmem.numWrRetry                           0                      
system.physmem.totGap                        36801000                      
system.physmem.readPktSize::0                       0                      
system.physmem.readPktSize::1                       0                      
system.physmem.readPktSize::2                       0                      
system.physmem.readPktSize::3                       0                      
system.physmem.readPktSize::4                       0                      
system.physmem.readPktSize::5                       0                      
system.physmem.readPktSize::6                     472                      
system.physmem.writePktSize::0                      0                      
system.physmem.writePktSize::1                      0                      
system.physmem.writePktSize::2                      0                      
system.physmem.writePktSize::3                      0                      
system.physmem.writePktSize::4                      0                      
system.physmem.writePktSize::5                      0                      
system.physmem.writePktSize::6                      0                      
system.physmem.rdQLenPdf::0                       389                      
system.physmem.rdQLenPdf::1                        76                      
system.physmem.rdQLenPdf::2                         7                      
system.physmem.rdQLenPdf::3                         0                      
system.physmem.rdQLenPdf::4                         0                      
system.physmem.rdQLenPdf::5                         0                      
system.physmem.rdQLenPdf::6                         0                      
system.physmem.rdQLenPdf::7                         0                      
system.physmem.rdQLenPdf::8                         0                      
system.physmem.rdQLenPdf::9                         0                      
system.physmem.rdQLenPdf::10                        0                      
system.physmem.rdQLenPdf::11                        0                      
system.physmem.rdQLenPdf::12                        0                      
system.physmem.rdQLenPdf::13                        0                      
system.physmem.rdQLenPdf::14                        0                      
system.physmem.rdQLenPdf::15                        0                      
system.physmem.rdQLenPdf::16                        0                      
system.physmem.rdQLenPdf::17                        0                      
system.physmem.rdQLenPdf::18                        0                      
system.physmem.rdQLenPdf::19                        0                      
system.physmem.rdQLenPdf::20                        0                      
system.physmem.rdQLenPdf::21                        0                      
system.physmem.rdQLenPdf::22                        0                      
system.physmem.rdQLenPdf::23                        0                      
system.physmem.rdQLenPdf::24                        0                      
system.physmem.rdQLenPdf::25                        0                      
system.physmem.rdQLenPdf::26                        0                      
system.physmem.rdQLenPdf::27                        0                      
system.physmem.rdQLenPdf::28                        0                      
system.physmem.rdQLenPdf::29                        0                      
system.physmem.rdQLenPdf::30                        0                      
system.physmem.rdQLenPdf::31                        0                      
system.physmem.wrQLenPdf::0                         0                      
system.physmem.wrQLenPdf::1                         0                      
system.physmem.wrQLenPdf::2                         0                      
system.physmem.wrQLenPdf::3                         0                      
system.physmem.wrQLenPdf::4                         0                      
system.physmem.wrQLenPdf::5                         0                      
system.physmem.wrQLenPdf::6                         0                      
system.physmem.wrQLenPdf::7                         0                      
system.physmem.wrQLenPdf::8                         0                      
system.physmem.wrQLenPdf::9                         0                      
system.physmem.wrQLenPdf::10                        0                      
system.physmem.wrQLenPdf::11                        0                      
system.physmem.wrQLenPdf::12                        0                      
system.physmem.wrQLenPdf::13                        0                      
system.physmem.wrQLenPdf::14                        0                      
system.physmem.wrQLenPdf::15                        0                      
system.physmem.wrQLenPdf::16                        0                      
system.physmem.wrQLenPdf::17                        0                      
system.physmem.wrQLenPdf::18                        0                      
system.physmem.wrQLenPdf::19                        0                      
system.physmem.wrQLenPdf::20                        0                      
system.physmem.wrQLenPdf::21                        0                      
system.physmem.wrQLenPdf::22                        0                      
system.physmem.wrQLenPdf::23                        0                      
system.physmem.wrQLenPdf::24                        0                      
system.physmem.wrQLenPdf::25                        0                      
system.physmem.wrQLenPdf::26                        0                      
system.physmem.wrQLenPdf::27                        0                      
system.physmem.wrQLenPdf::28                        0                      
system.physmem.wrQLenPdf::29                        0                      
system.physmem.wrQLenPdf::30                        0                      
system.physmem.wrQLenPdf::31                        0                      
system.physmem.wrQLenPdf::32                        0                      
system.physmem.wrQLenPdf::33                        0                      
system.physmem.wrQLenPdf::34                        0                      
system.physmem.wrQLenPdf::35                        0                      
system.physmem.wrQLenPdf::36                        0                      
system.physmem.wrQLenPdf::37                        0                      
system.physmem.wrQLenPdf::38                        0                      
system.physmem.wrQLenPdf::39                        0                      
system.physmem.wrQLenPdf::40                        0                      
system.physmem.wrQLenPdf::41                        0                      
system.physmem.wrQLenPdf::42                        0                      
system.physmem.wrQLenPdf::43                        0                      
system.physmem.wrQLenPdf::44                        0                      
system.physmem.wrQLenPdf::45                        0                      
system.physmem.wrQLenPdf::46                        0                      
system.physmem.wrQLenPdf::47                        0                      
system.physmem.wrQLenPdf::48                        0                      
system.physmem.wrQLenPdf::49                        0                      
system.physmem.wrQLenPdf::50                        0                      
system.physmem.wrQLenPdf::51                        0                      
system.physmem.wrQLenPdf::52                        0                      
system.physmem.wrQLenPdf::53                        0                      
system.physmem.wrQLenPdf::54                        0                      
system.physmem.wrQLenPdf::55                        0                      
system.physmem.wrQLenPdf::56                        0                      
system.physmem.wrQLenPdf::57                        0                      
system.physmem.wrQLenPdf::58                        0                      
system.physmem.wrQLenPdf::59                        0                      
system.physmem.wrQLenPdf::60                        0                      
system.physmem.wrQLenPdf::61                        0                      
system.physmem.wrQLenPdf::62                        0                      
system.physmem.wrQLenPdf::63                        0                      
system.physmem.bytesPerActivate::samples           89                      
system.physmem.bytesPerActivate::mean      312.808989                      
system.physmem.bytesPerActivate::gmean     206.067104                      
system.physmem.bytesPerActivate::stdev     289.521348                      
system.physmem.bytesPerActivate::0-127             26     29.21%     29.21%
system.physmem.bytesPerActivate::128-255           19     21.35%     50.56%
system.physmem.bytesPerActivate::256-383           17     19.10%     69.66%
system.physmem.bytesPerActivate::384-511            8      8.99%     78.65%
system.physmem.bytesPerActivate::512-639            4      4.49%     83.15%
system.physmem.bytesPerActivate::640-767            5      5.62%     88.76%
system.physmem.bytesPerActivate::768-895            2      2.25%     91.01%
system.physmem.bytesPerActivate::896-1023            2      2.25%     93.26%
system.physmem.bytesPerActivate::1024-1151            6      6.74%    100.00%
system.physmem.bytesPerActivate::total             89                      
system.physmem.totQLat                        6529500                      
system.physmem.totMemAccLat                  15379500                      
system.physmem.totBusLat                      2360000                      
system.physmem.avgQLat                       13833.69                      
system.physmem.avgBusLat                      5000.00                      
system.physmem.avgMemAccLat                  32583.69                      
system.physmem.avgRdBW                         819.02                      
system.physmem.avgWrBW                           0.00                      
system.physmem.avgRdBWSys                      819.02                      
system.physmem.avgWrBWSys                        0.00                      
system.physmem.peakBW                        12800.00                      
system.physmem.busUtil                           6.40                      
system.physmem.busUtilRead                       6.40                      
system.physmem.busUtilWrite                      0.00                      
system.physmem.avgRdQLen                         1.21                      
system.physmem.avgWrQLen                         0.00                      
system.physmem.readRowHits                        374                      
system.physmem.writeRowHits                         0                      
system.physmem.readRowHitRate                   79.24                      
system.physmem.writeRowHitRate                    nan                      
system.physmem.avgGap                        77968.22                      
system.physmem.pageHitRate                      79.24                      
system.physmem_0.actEnergy                     571200                      
system.physmem_0.preEnergy                     277035                      
system.physmem_0.readEnergy                   2663220                      
system.physmem_0.writeEnergy                        0                      
system.physmem_0.refreshEnergy           2458560.000000                      
system.physmem_0.actBackEnergy                5107200                      
system.physmem_0.preBackEnergy                  54240                      
system.physmem_0.actPowerDownEnergy          11548770                      
system.physmem_0.prePowerDownEnergy             83040                      
system.physmem_0.selfRefreshEnergy                  0                      
system.physmem_0.totalEnergy                 22763265                      
system.physmem_0.averagePower              617.174986                      
system.physmem_0.totalIdleTime               25318750                      
system.physmem_0.memoryStateTime::IDLE          30000                      
system.physmem_0.memoryStateTime::REF         1040000                      
system.physmem_0.memoryStateTime::SREF              0                      
system.physmem_0.memoryStateTime::PRE_PDN       216500                      
system.physmem_0.memoryStateTime::ACT        10261000                      
system.physmem_0.memoryStateTime::ACT_PDN     25335500                      
system.physmem_1.actEnergy                     128520                      
system.physmem_1.preEnergy                      60720                      
system.physmem_1.readEnergy                    706860                      
system.physmem_1.writeEnergy                        0                      
system.physmem_1.refreshEnergy           2458560.000000                      
system.physmem_1.actBackEnergy                1843950                      
system.physmem_1.preBackEnergy                 313920                      
system.physmem_1.actPowerDownEnergy          13929090                      
system.physmem_1.prePowerDownEnergy            566880                      
system.physmem_1.selfRefreshEnergy                  0                      
system.physmem_1.totalEnergy                 20008500                      
system.physmem_1.averagePower              542.485698                      
system.physmem_1.totalIdleTime               31983500                      
system.physmem_1.memoryStateTime::IDLE         693000                      
system.physmem_1.memoryStateTime::REF         1040000                      
system.physmem_1.memoryStateTime::SREF              0                      
system.physmem_1.memoryStateTime::PRE_PDN      1475250                      
system.physmem_1.memoryStateTime::ACT         3121250                      
system.physmem_1.memoryStateTime::ACT_PDN     30553500                      
system.pwrStateResidencyTicks::UNDEFINED     36883000                      
system.cpu.branchPred.lookups                    2812                      
system.cpu.branchPred.condPredicted              1846                      
system.cpu.branchPred.condIncorrect               470                      
system.cpu.branchPred.BTBLookups                 2589                      
system.cpu.branchPred.BTBHits                     316                      
system.cpu.branchPred.BTBCorrect                    0                      
system.cpu.branchPred.BTBHitPct             12.205485                      
system.cpu.branchPred.usedRAS                       0                      
system.cpu.branchPred.RASInCorrect                  0                      
system.cpu.branchPred.indirectLookups             672                      
system.cpu.branchPred.indirectHits                 36                      
system.cpu.branchPred.indirectMisses              636                      
system.cpu.branchPredindirectMispredicted          173                      
system.cpu_clk_domain.clock                       500                      
system.cpu.dtb.read_hits                            0                      
system.cpu.dtb.read_misses                          0                      
system.cpu.dtb.read_accesses                        0                      
system.cpu.dtb.write_hits                           0                      
system.cpu.dtb.write_misses                         0                      
system.cpu.dtb.write_accesses                       0                      
system.cpu.dtb.hits                                 0                      
system.cpu.dtb.misses                               0                      
system.cpu.dtb.accesses                             0                      
system.cpu.itb.read_hits                            0                      
system.cpu.itb.read_misses                          0                      
system.cpu.itb.read_accesses                        0                      
system.cpu.itb.write_hits                           0                      
system.cpu.itb.write_misses                         0                      
system.cpu.itb.write_accesses                       0                      
system.cpu.itb.hits                                 0                      
system.cpu.itb.misses                               0                      
system.cpu.itb.accesses                             0                      
system.cpu.workload.numSyscalls                     9                      
system.cpu.pwrStateResidencyTicks::ON        36883000                      
system.cpu.numCycles                            73766                      
system.cpu.numWorkItemsStarted                      0                      
system.cpu.numWorkItemsCompleted                    0                      
system.cpu.committedInsts                        5571                      
system.cpu.committedOps                          5580                      
system.cpu.discardedOps                          1482                      
system.cpu.numFetchSuspends                         0                      
system.cpu.cpi                              13.241070                      
system.cpu.ipc                               0.075523                      
system.cpu.op_class_0::No_OpClass                  10      0.18%      0.18%
system.cpu.op_class_0::IntAlu                    3398     60.90%     61.08%
system.cpu.op_class_0::IntMult                      2      0.04%     61.11%
system.cpu.op_class_0::IntDiv                       4      0.07%     61.18%
system.cpu.op_class_0::FloatAdd                     0      0.00%     61.18%
system.cpu.op_class_0::FloatCmp                     0      0.00%     61.18%
system.cpu.op_class_0::FloatCvt                     0      0.00%     61.18%
system.cpu.op_class_0::FloatMult                    0      0.00%     61.18%
system.cpu.op_class_0::FloatMultAcc                 0      0.00%     61.18%
system.cpu.op_class_0::FloatDiv                     0      0.00%     61.18%
system.cpu.op_class_0::FloatMisc                    0      0.00%     61.18%
system.cpu.op_class_0::FloatSqrt                    0      0.00%     61.18%
system.cpu.op_class_0::SimdAdd                      0      0.00%     61.18%
system.cpu.op_class_0::SimdAddAcc                   0      0.00%     61.18%
system.cpu.op_class_0::SimdAlu                      0      0.00%     61.18%
system.cpu.op_class_0::SimdCmp                      0      0.00%     61.18%
system.cpu.op_class_0::SimdCvt                      0      0.00%     61.18%
system.cpu.op_class_0::SimdMisc                     0      0.00%     61.18%
system.cpu.op_class_0::SimdMult                     0      0.00%     61.18%
system.cpu.op_class_0::SimdMultAcc                  0      0.00%     61.18%
system.cpu.op_class_0::SimdShift                    0      0.00%     61.18%
system.cpu.op_class_0::SimdShiftAcc                 0      0.00%     61.18%
system.cpu.op_class_0::SimdSqrt                     0      0.00%     61.18%
system.cpu.op_class_0::SimdFloatAdd                 0      0.00%     61.18%
system.cpu.op_class_0::SimdFloatAlu                 0      0.00%     61.18%
system.cpu.op_class_0::SimdFloatCmp                 0      0.00%     61.18%
system.cpu.op_class_0::SimdFloatCvt                 0      0.00%     61.18%
system.cpu.op_class_0::SimdFloatDiv                 0      0.00%     61.18%
system.cpu.op_class_0::SimdFloatMisc                0      0.00%     61.18%
system.cpu.op_class_0::SimdFloatMult                0      0.00%     61.18%
system.cpu.op_class_0::SimdFloatMultAcc             0      0.00%     61.18%
system.cpu.op_class_0::SimdFloatSqrt                0      0.00%     61.18%
system.cpu.op_class_0::MemRead                   1084     19.43%     80.61%
system.cpu.op_class_0::MemWrite                  1070     19.18%     99.78%
system.cpu.op_class_0::FloatMemRead                 0      0.00%     99.78%
system.cpu.op_class_0::FloatMemWrite               12      0.22%    100.00%
system.cpu.op_class_0::IprAccess                    0      0.00%    100.00%
system.cpu.op_class_0::InstPrefetch                 0      0.00%    100.00%
system.cpu.op_class_0::total                     5580                      
system.cpu.tickCycles                           11291                      
system.cpu.idleCycles                           62475                      
system.cpu.fetch2.int_instructions               7663                      
system.cpu.fetch2.fp_instructions                   0                      
system.cpu.fetch2.vec_instructions                  0                      
system.cpu.fetch2.load_instructions              2305                      
system.cpu.fetch2.store_instructions             1878                      
system.cpu.dcache.tags.pwrStateResidencyTicks::UNDEFINED     36883000                      
system.cpu.dcache.tags.replacements                 0                      
system.cpu.dcache.tags.tagsinuse            88.170920                      
system.cpu.dcache.tags.total_refs                2163                      
system.cpu.dcache.tags.sampled_refs               146                      
system.cpu.dcache.tags.avg_refs             14.815068                      
system.cpu.dcache.tags.warmup_cycle            180500                      
system.cpu.dcache.tags.occ_blocks::cpu.data    88.170920                      
system.cpu.dcache.tags.occ_percent::cpu.data     0.021526                      
system.cpu.dcache.tags.occ_percent::total     0.021526                      
system.cpu.dcache.tags.occ_task_id_blocks::1024          146                      
system.cpu.dcache.tags.age_task_id_blocks_1024::0           21                      
system.cpu.dcache.tags.age_task_id_blocks_1024::1          125                      
system.cpu.dcache.tags.occ_task_id_percent::1024     0.035645                      
system.cpu.dcache.tags.tag_accesses              4872                      
system.cpu.dcache.tags.data_accesses             4872                      
system.cpu.dcache.pwrStateResidencyTicks::UNDEFINED     36883000                      
system.cpu.dcache.ReadReq_hits::cpu.data         1208                      
system.cpu.dcache.ReadReq_hits::total            1208                      
system.cpu.dcache.WriteReq_hits::cpu.data          940                      
system.cpu.dcache.WriteReq_hits::total            940                      
system.cpu.dcache.LoadLockedReq_hits::cpu.data            7                      
system.cpu.dcache.LoadLockedReq_hits::total            7                      
system.cpu.dcache.StoreCondReq_hits::cpu.data            8                      
system.cpu.dcache.StoreCondReq_hits::total            8                      
system.cpu.dcache.demand_hits::cpu.data          2148                      
system.cpu.dcache.demand_hits::total             2148                      
system.cpu.dcache.overall_hits::cpu.data         2148                      
system.cpu.dcache.overall_hits::total            2148                      
system.cpu.dcache.ReadReq_misses::cpu.data           65                      
system.cpu.dcache.ReadReq_misses::total            65                      
system.cpu.dcache.WriteReq_misses::cpu.data          134                      
system.cpu.dcache.WriteReq_misses::total          134                      
system.cpu.dcache.LoadLockedReq_misses::cpu.data            1                      
system.cpu.dcache.LoadLockedReq_misses::total            1                      
system.cpu.dcache.demand_misses::cpu.data          199                      
system.cpu.dcache.demand_misses::total            199                      
system.cpu.dcache.overall_misses::cpu.data          199                      
system.cpu.dcache.overall_misses::total           199                      
system.cpu.dcache.ReadReq_miss_latency::cpu.data      5935500                      
system.cpu.dcache.ReadReq_miss_latency::total      5935500                      
system.cpu.dcache.WriteReq_miss_latency::cpu.data     10907000                      
system.cpu.dcache.WriteReq_miss_latency::total     10907000                      
system.cpu.dcache.LoadLockedReq_miss_latency::cpu.data        77000                      
system.cpu.dcache.LoadLockedReq_miss_latency::total        77000                      
system.cpu.dcache.demand_miss_latency::cpu.data     16842500                      
system.cpu.dcache.demand_miss_latency::total     16842500                      
system.cpu.dcache.overall_miss_latency::cpu.data     16842500                      
system.cpu.dcache.overall_miss_latency::total     16842500                      
system.cpu.dcache.ReadReq_accesses::cpu.data         1273                      
system.cpu.dcache.ReadReq_accesses::total         1273                      
system.cpu.dcache.WriteReq_accesses::cpu.data         1074                      
system.cpu.dcache.WriteReq_accesses::total         1074                      
system.cpu.dcache.LoadLockedReq_accesses::cpu.data            8                      
system.cpu.dcache.LoadLockedReq_accesses::total            8                      
system.cpu.dcache.StoreCondReq_accesses::cpu.data            8                      
system.cpu.dcache.StoreCondReq_accesses::total            8                      
system.cpu.dcache.demand_accesses::cpu.data         2347                      
system.cpu.dcache.demand_accesses::total         2347                      
system.cpu.dcache.overall_accesses::cpu.data         2347                      
system.cpu.dcache.overall_accesses::total         2347                      
system.cpu.dcache.ReadReq_miss_rate::cpu.data     0.051060                      
system.cpu.dcache.ReadReq_miss_rate::total     0.051060                      
system.cpu.dcache.WriteReq_miss_rate::cpu.data     0.124767                      
system.cpu.dcache.WriteReq_miss_rate::total     0.124767                      
system.cpu.dcache.LoadLockedReq_miss_rate::cpu.data     0.125000                      
system.cpu.dcache.LoadLockedReq_miss_rate::total     0.125000                      
system.cpu.dcache.demand_miss_rate::cpu.data     0.084789                      
system.cpu.dcache.demand_miss_rate::total     0.084789                      
system.cpu.dcache.overall_miss_rate::cpu.data     0.084789                      
system.cpu.dcache.overall_miss_rate::total     0.084789                      
system.cpu.dcache.ReadReq_avg_miss_latency::cpu.data 91315.384615                      
system.cpu.dcache.ReadReq_avg_miss_latency::total 91315.384615                      
system.cpu.dcache.WriteReq_avg_miss_latency::cpu.data 81395.522388                      
system.cpu.dcache.WriteReq_avg_miss_latency::total 81395.522388                      
system.cpu.dcache.LoadLockedReq_avg_miss_latency::cpu.data        77000                      
system.cpu.dcache.LoadLockedReq_avg_miss_latency::total        77000                      
system.cpu.dcache.demand_avg_miss_latency::cpu.data 84635.678392                      
system.cpu.dcache.demand_avg_miss_latency::total 84635.678392                      
system.cpu.dcache.overall_avg_miss_latency::cpu.data 84635.678392                      
system.cpu.dcache.overall_avg_miss_latency::total 84635.678392                      
system.cpu.dcache.blocked_cycles::no_mshrs            0                      
system.cpu.dcache.blocked_cycles::no_targets            0                      
system.cpu.dcache.blocked::no_mshrs                 0                      
system.cpu.dcache.blocked::no_targets               0                      
system.cpu.dcache.avg_blocked_cycles::no_mshrs          nan                      
system.cpu.dcache.avg_blocked_cycles::no_targets          nan                      
system.cpu.dcache.ReadReq_mshr_hits::cpu.data            2                      
system.cpu.dcache.ReadReq_mshr_hits::total            2                      
system.cpu.dcache.WriteReq_mshr_hits::cpu.data           52                      
system.cpu.dcache.WriteReq_mshr_hits::total           52                      
system.cpu.dcache.demand_mshr_hits::cpu.data           54                      
system.cpu.dcache.demand_mshr_hits::total           54                      
system.cpu.dcache.overall_mshr_hits::cpu.data           54                      
system.cpu.dcache.overall_mshr_hits::total           54                      
system.cpu.dcache.ReadReq_mshr_misses::cpu.data           63                      
system.cpu.dcache.ReadReq_mshr_misses::total           63                      
system.cpu.dcache.WriteReq_mshr_misses::cpu.data           82                      
system.cpu.dcache.WriteReq_mshr_misses::total           82                      
system.cpu.dcache.LoadLockedReq_mshr_misses::cpu.data            1                      
system.cpu.dcache.LoadLockedReq_mshr_misses::total            1                      
system.cpu.dcache.demand_mshr_misses::cpu.data          145                      
system.cpu.dcache.demand_mshr_misses::total          145                      
system.cpu.dcache.overall_mshr_misses::cpu.data          145                      
system.cpu.dcache.overall_mshr_misses::total          145                      
system.cpu.dcache.ReadReq_mshr_miss_latency::cpu.data      5684000                      
system.cpu.dcache.ReadReq_mshr_miss_latency::total      5684000                      
system.cpu.dcache.WriteReq_mshr_miss_latency::cpu.data      6901000                      
system.cpu.dcache.WriteReq_mshr_miss_latency::total      6901000                      
system.cpu.dcache.LoadLockedReq_mshr_miss_latency::cpu.data        76000                      
system.cpu.dcache.LoadLockedReq_mshr_miss_latency::total        76000                      
system.cpu.dcache.demand_mshr_miss_latency::cpu.data     12585000                      
system.cpu.dcache.demand_mshr_miss_latency::total     12585000                      
system.cpu.dcache.overall_mshr_miss_latency::cpu.data     12585000                      
system.cpu.dcache.overall_mshr_miss_latency::total     12585000                      
system.cpu.dcache.ReadReq_mshr_miss_rate::cpu.data     0.049489                      
system.cpu.dcache.ReadReq_mshr_miss_rate::total     0.049489                      
system.cpu.dcache.WriteReq_mshr_miss_rate::cpu.data     0.076350                      
system.cpu.dcache.WriteReq_mshr_miss_rate::total     0.076350                      
system.cpu.dcache.LoadLockedReq_mshr_miss_rate::cpu.data     0.125000                      
system.cpu.dcache.LoadLockedReq_mshr_miss_rate::total     0.125000                      
system.cpu.dcache.demand_mshr_miss_rate::cpu.data     0.061781                      
system.cpu.dcache.demand_mshr_miss_rate::total     0.061781                      
system.cpu.dcache.overall_mshr_miss_rate::cpu.data     0.061781                      
system.cpu.dcache.overall_mshr_miss_rate::total     0.061781                      
system.cpu.dcache.ReadReq_avg_mshr_miss_latency::cpu.data 90222.222222                      
system.cpu.dcache.ReadReq_avg_mshr_miss_latency::total 90222.222222                      
system.cpu.dcache.WriteReq_avg_mshr_miss_latency::cpu.data 84158.536585                      
system.cpu.dcache.WriteReq_avg_mshr_miss_latency::total 84158.536585                      
system.cpu.dcache.LoadLockedReq_avg_mshr_miss_latency::cpu.data        76000                      
system.cpu.dcache.LoadLockedReq_avg_mshr_miss_latency::total        76000                      
system.cpu.dcache.demand_avg_mshr_miss_latency::cpu.data 86793.103448                      
system.cpu.dcache.demand_avg_mshr_miss_latency::total 86793.103448                      
system.cpu.dcache.overall_avg_mshr_miss_latency::cpu.data 86793.103448                      
system.cpu.dcache.overall_avg_mshr_miss_latency::total 86793.103448                      
system.cpu.icache.tags.pwrStateResidencyTicks::UNDEFINED     36883000                      
system.cpu.icache.tags.replacements                 0                      
system.cpu.icache.tags.tagsinuse           161.257332                      
system.cpu.icache.tags.total_refs                1860                      
system.cpu.icache.tags.sampled_refs               326                      
system.cpu.icache.tags.avg_refs              5.705521                      
system.cpu.icache.tags.warmup_cycle             87500                      
system.cpu.icache.tags.occ_blocks::cpu.inst   161.257332                      
system.cpu.icache.tags.occ_percent::cpu.inst     0.078739                      
system.cpu.icache.tags.occ_percent::total     0.078739                      
system.cpu.icache.tags.occ_task_id_blocks::1024          326                      
system.cpu.icache.tags.age_task_id_blocks_1024::0           94                      
system.cpu.icache.tags.age_task_id_blocks_1024::1          232                      
system.cpu.icache.tags.occ_task_id_percent::1024     0.159180                      
system.cpu.icache.tags.tag_accesses              4700                      
system.cpu.icache.tags.data_accesses             4700                      
system.cpu.icache.pwrStateResidencyTicks::UNDEFINED     36883000                      
system.cpu.icache.ReadReq_hits::cpu.inst         1860                      
system.cpu.icache.ReadReq_hits::total            1860                      
system.cpu.icache.demand_hits::cpu.inst          1860                      
system.cpu.icache.demand_hits::total             1860                      
system.cpu.icache.overall_hits::cpu.inst         1860                      
system.cpu.icache.overall_hits::total            1860                      
system.cpu.icache.ReadReq_misses::cpu.inst          327                      
system.cpu.icache.ReadReq_misses::total           327                      
system.cpu.icache.demand_misses::cpu.inst          327                      
system.cpu.icache.demand_misses::total            327                      
system.cpu.icache.overall_misses::cpu.inst          327                      
system.cpu.icache.overall_misses::total           327                      
system.cpu.icache.ReadReq_miss_latency::cpu.inst     27829500                      
system.cpu.icache.ReadReq_miss_latency::total     27829500                      
system.cpu.icache.demand_miss_latency::cpu.inst     27829500                      
system.cpu.icache.demand_miss_latency::total     27829500                      
system.cpu.icache.overall_miss_latency::cpu.inst     27829500                      
system.cpu.icache.overall_miss_latency::total     27829500                      
system.cpu.icache.ReadReq_accesses::cpu.inst         2187                      
system.cpu.icache.ReadReq_accesses::total         2187                      
system.cpu.icache.demand_accesses::cpu.inst         2187                      
system.cpu.icache.demand_accesses::total         2187                      
system.cpu.icache.overall_accesses::cpu.inst         2187                      
system.cpu.icache.overall_accesses::total         2187                      
system.cpu.icache.ReadReq_miss_rate::cpu.inst     0.149520                      
system.cpu.icache.ReadReq_miss_rate::total     0.149520                      
system.cpu.icache.demand_miss_rate::cpu.inst     0.149520                      
system.cpu.icache.demand_miss_rate::total     0.149520                      
system.cpu.icache.overall_miss_rate::cpu.inst     0.149520                      
system.cpu.icache.overall_miss_rate::total     0.149520                      
system.cpu.icache.ReadReq_avg_miss_latency::cpu.inst 85105.504587                      
system.cpu.icache.ReadReq_avg_miss_latency::total 85105.504587                      
system.cpu.icache.demand_avg_miss_latency::cpu.inst 85105.504587                      
system.cpu.icache.demand_avg_miss_latency::total 85105.504587                      
system.cpu.icache.overall_avg_miss_latency::cpu.inst 85105.504587                      
system.cpu.icache.overall_avg_miss_latency::total 85105.504587                      
system.cpu.icache.blocked_cycles::no_mshrs            0                      
system.cpu.icache.blocked_cycles::no_targets            0                      
system.cpu.icache.blocked::no_mshrs                 0                      
system.cpu.icache.blocked::no_targets               0                      
system.cpu.icache.avg_blocked_cycles::no_mshrs          nan                      
system.cpu.icache.avg_blocked_cycles::no_targets          nan                      
system.cpu.icache.ReadReq_mshr_misses::cpu.inst          327                      
system.cpu.icache.ReadReq_mshr_misses::total          327                      
system.cpu.icache.demand_mshr_misses::cpu.inst          327                      
system.cpu.icache.demand_mshr_misses::total          327                      
system.cpu.icache.overall_mshr_misses::cpu.inst          327                      
system.cpu.icache.overall_mshr_misses::total          327                      
system.cpu.icache.ReadReq_mshr_miss_latency::cpu.inst     27503500                      
system.cpu.icache.ReadReq_mshr_miss_latency::total     27503500                      
system.cpu.icache.demand_mshr_miss_latency::cpu.inst     27503500                      
system.cpu.icache.demand_mshr_miss_latency::total     27503500                      
system.cpu.icache.overall_mshr_miss_latency::cpu.inst     27503500                      
system.cpu.icache.overall_mshr_miss_latency::total     27503500                      
system.cpu.icache.ReadReq_mshr_miss_rate::cpu.inst     0.149520                      
system.cpu.icache.ReadReq_mshr_miss_rate::total     0.149520                      
system.cpu.icache.demand_mshr_miss_rate::cpu.inst     0.149520                      
system.cpu.icache.demand_mshr_miss_rate::total     0.149520                      
system.cpu.icache.overall_mshr_miss_rate::cpu.inst     0.149520                      
system.cpu.icache.overall_mshr_miss_rate::total     0.149520                      
system.cpu.icache.ReadReq_avg_mshr_miss_latency::cpu.inst 84108.562691                      
system.cpu.icache.ReadReq_avg_mshr_miss_latency::total 84108.562691                      
system.cpu.icache.demand_avg_mshr_miss_latency::cpu.inst 84108.562691                      
system.cpu.icache.demand_avg_mshr_miss_latency::total 84108.562691                      
system.cpu.icache.overall_avg_mshr_miss_latency::cpu.inst 84108.562691                      
system.cpu.icache.overall_avg_mshr_miss_latency::total 84108.562691                      
system.cpu.l2cache.tags.pwrStateResidencyTicks::UNDEFINED     36883000                      
system.cpu.l2cache.tags.replacements                0                      
system.cpu.l2cache.tags.tagsinuse          249.562623                      
system.cpu.l2cache.tags.total_refs                  0                      
system.cpu.l2cache.tags.sampled_refs              472                      
system.cpu.l2cache.tags.avg_refs                    0                      
system.cpu.l2cache.tags.warmup_cycle            77000                      
system.cpu.l2cache.tags.occ_blocks::cpu.inst   161.350139                      
system.cpu.l2cache.tags.occ_blocks::cpu.data    88.212484                      
system.cpu.l2cache.tags.occ_percent::cpu.inst     0.004924                      
system.cpu.l2cache.tags.occ_percent::cpu.data     0.002692                      
system.cpu.l2cache.tags.occ_percent::total     0.007616                      
system.cpu.l2cache.tags.occ_task_id_blocks::1024          472                      
system.cpu.l2cache.tags.age_task_id_blocks_1024::0          115                      
system.cpu.l2cache.tags.age_task_id_blocks_1024::1          357                      
system.cpu.l2cache.tags.occ_task_id_percent::1024     0.014404                      
system.cpu.l2cache.tags.tag_accesses             4256                      
system.cpu.l2cache.tags.data_accesses            4256                      
system.cpu.l2cache.pwrStateResidencyTicks::UNDEFINED     36883000                      
system.cpu.l2cache.ReadExReq_misses::cpu.data           82                      
system.cpu.l2cache.ReadExReq_misses::total           82                      
system.cpu.l2cache.ReadCleanReq_misses::cpu.inst          327                      
system.cpu.l2cache.ReadCleanReq_misses::total          327                      
system.cpu.l2cache.ReadSharedReq_misses::cpu.data           64                      
system.cpu.l2cache.ReadSharedReq_misses::total           64                      
system.cpu.l2cache.demand_misses::cpu.inst          327                      
system.cpu.l2cache.demand_misses::cpu.data          146                      
system.cpu.l2cache.demand_misses::total           473                      
system.cpu.l2cache.overall_misses::cpu.inst          327                      
system.cpu.l2cache.overall_misses::cpu.data          146                      
system.cpu.l2cache.overall_misses::total          473                      
system.cpu.l2cache.ReadExReq_miss_latency::cpu.data      6778000                      
system.cpu.l2cache.ReadExReq_miss_latency::total      6778000                      
system.cpu.l2cache.ReadCleanReq_miss_latency::cpu.inst     27014500                      
system.cpu.l2cache.ReadCleanReq_miss_latency::total     27014500                      
system.cpu.l2cache.ReadSharedReq_miss_latency::cpu.data      5664000                      
system.cpu.l2cache.ReadSharedReq_miss_latency::total      5664000                      
system.cpu.l2cache.demand_miss_latency::cpu.inst     27014500                      
system.cpu.l2cache.demand_miss_latency::cpu.data     12442000                      
system.cpu.l2cache.demand_miss_latency::total     39456500                      
system.cpu.l2cache.overall_miss_latency::cpu.inst     27014500                      
system.cpu.l2cache.overall_miss_latency::cpu.data     12442000                      
system.cpu.l2cache.overall_miss_latency::total     39456500                      
system.cpu.l2cache.ReadExReq_accesses::cpu.data           82                      
system.cpu.l2cache.ReadExReq_accesses::total           82                      
system.cpu.l2cache.ReadCleanReq_accesses::cpu.inst          327                      
system.cpu.l2cache.ReadCleanReq_accesses::total          327                      
system.cpu.l2cache.ReadSharedReq_accesses::cpu.data           64                      
system.cpu.l2cache.ReadSharedReq_accesses::total           64                      
system.cpu.l2cache.demand_accesses::cpu.inst          327                      
system.cpu.l2cache.demand_accesses::cpu.data          146                      
system.cpu.l2cache.demand_accesses::total          473                      
system.cpu.l2cache.overall_accesses::cpu.inst          327                      
system.cpu.l2cache.overall_accesses::cpu.data          146                      
system.cpu.l2cache.overall_accesses::total          473                      
system.cpu.l2cache.ReadExReq_miss_rate::cpu.data            1                      
system.cpu.l2cache.ReadExReq_miss_rate::total            1                      
system.cpu.l2cache.ReadCleanReq_miss_rate::cpu.inst            1                      
system.cpu.l2cache.ReadCleanReq_miss_rate::total            1                      
system.cpu.l2cache.ReadSharedReq_miss_rate::cpu.data            1                      
system.cpu.l2cache.ReadSharedReq_miss_rate::total            1                      
system.cpu.l2cache.demand_miss_rate::cpu.inst            1                      
system.cpu.l2cache.demand_miss_rate::cpu.data            1                      
system.cpu.l2cache.demand_miss_rate::total            1                      
system.cpu.l2cache.overall_miss_rate::cpu.inst            1                      
system.cpu.l2cache.overall_miss_rate::cpu.data            1                      
system.cpu.l2cache.overall_miss_rate::total            1                      
system.cpu.l2cache.ReadExReq_avg_miss_latency::cpu.data 82658.536585                      
system.cpu.l2cache.ReadExReq_avg_miss_latency::total 82658.536585                      
system.cpu.l2cache.ReadCleanReq_avg_miss_latency::cpu.inst 82613.149847                      
system.cpu.l2cache.ReadCleanReq_avg_miss_latency::total 82613.149847                      
system.cpu.l2cache.ReadSharedReq_avg_miss_latency::cpu.data        88500                      
system.cpu.l2cache.ReadSharedReq_avg_miss_latency::total        88500                      
system.cpu.l2cache.demand_avg_miss_latency::cpu.inst 82613.149847                      
system.cpu.l2cache.demand_avg_miss_latency::cpu.data 85219.178082                      
system.cpu.l2cache.demand_avg_miss_latency::total 83417.547569                      
system.cpu.l2cache.overall_avg_miss_latency::cpu.inst 82613.149847                      
system.cpu.l2cache.overall_avg_miss_latency::cpu.data 85219.178082                      
system.cpu.l2cache.overall_avg_miss_latency::total 83417.547569                      
system.cpu.l2cache.blocked_cycles::no_mshrs            0                      
system.cpu.l2cache.blocked_cycles::no_targets            0                      
system.cpu.l2cache.blocked::no_mshrs                0                      
system.cpu.l2cache.blocked::no_targets              0                      
system.cpu.l2cache.avg_blocked_cycles::no_mshrs          nan                      
system.cpu.l2cache.avg_blocked_cycles::no_targets          nan                      
system.cpu.l2cache.ReadExReq_mshr_misses::cpu.data           82                      
system.cpu.l2cache.ReadExReq_mshr_misses::total           82                      
system.cpu.l2cache.ReadCleanReq_mshr_misses::cpu.inst          327                      
system.cpu.l2cache.ReadCleanReq_mshr_misses::total          327                      
system.cpu.l2cache.ReadSharedReq_mshr_misses::cpu.data           64                      
system.cpu.l2cache.ReadSharedReq_mshr_misses::total           64                      
system.cpu.l2cache.demand_mshr_misses::cpu.inst          327                      
system.cpu.l2cache.demand_mshr_misses::cpu.data          146                      
system.cpu.l2cache.demand_mshr_misses::total          473                      
system.cpu.l2cache.overall_mshr_misses::cpu.inst          327                      
system.cpu.l2cache.overall_mshr_misses::cpu.data          146                      
system.cpu.l2cache.overall_mshr_misses::total          473                      
system.cpu.l2cache.ReadExReq_mshr_miss_latency::cpu.data      5958000                      
system.cpu.l2cache.ReadExReq_mshr_miss_latency::total      5958000                      
system.cpu.l2cache.ReadCleanReq_mshr_miss_latency::cpu.inst     23754500                      
system.cpu.l2cache.ReadCleanReq_mshr_miss_latency::total     23754500                      
system.cpu.l2cache.ReadSharedReq_mshr_miss_latency::cpu.data      5024000                      
system.cpu.l2cache.ReadSharedReq_mshr_miss_latency::total      5024000                      
system.cpu.l2cache.demand_mshr_miss_latency::cpu.inst     23754500                      
system.cpu.l2cache.demand_mshr_miss_latency::cpu.data     10982000                      
system.cpu.l2cache.demand_mshr_miss_latency::total     34736500                      
system.cpu.l2cache.overall_mshr_miss_latency::cpu.inst     23754500                      
system.cpu.l2cache.overall_mshr_miss_latency::cpu.data     10982000                      
system.cpu.l2cache.overall_mshr_miss_latency::total     34736500                      
system.cpu.l2cache.ReadExReq_mshr_miss_rate::cpu.data            1                      
system.cpu.l2cache.ReadExReq_mshr_miss_rate::total            1                      
system.cpu.l2cache.ReadCleanReq_mshr_miss_rate::cpu.inst            1                      
system.cpu.l2cache.ReadCleanReq_mshr_miss_rate::total            1                      
system.cpu.l2cache.ReadSharedReq_mshr_miss_rate::cpu.data            1                      
system.cpu.l2cache.ReadSharedReq_mshr_miss_rate::total            1                      
system.cpu.l2cache.demand_mshr_miss_rate::cpu.inst            1                      
system.cpu.l2cache.demand_mshr_miss_rate::cpu.data            1                      
system.cpu.l2cache.demand_mshr_miss_rate::total            1                      
system.cpu.l2cache.overall_mshr_miss_rate::cpu.inst            1                      
system.cpu.l2cache.overall_mshr_miss_rate::cpu.data            1                      
system.cpu.l2cache.overall_mshr_miss_rate::total            1                      
system.cpu.l2cache.ReadExReq_avg_mshr_miss_latency::cpu.data 72658.536585                      
system.cpu.l2cache.ReadExReq_avg_mshr_miss_latency::total 72658.536585                      
system.cpu.l2cache.ReadCleanReq_avg_mshr_miss_latency::cpu.inst 72643.730887                      
system.cpu.l2cache.ReadCleanReq_avg_mshr_miss_latency::total 72643.730887                      
system.cpu.l2cache.ReadSharedReq_avg_mshr_miss_latency::cpu.data        78500                      
system.cpu.l2cache.ReadSharedReq_avg_mshr_miss_latency::total        78500                      
system.cpu.l2cache.demand_avg_mshr_miss_latency::cpu.inst 72643.730887                      
system.cpu.l2cache.demand_avg_mshr_miss_latency::cpu.data 75219.178082                      
system.cpu.l2cache.demand_avg_mshr_miss_latency::total 73438.689218                      
system.cpu.l2cache.overall_avg_mshr_miss_latency::cpu.inst 72643.730887                      
system.cpu.l2cache.overall_avg_mshr_miss_latency::cpu.data 75219.178082                      
system.cpu.l2cache.overall_avg_mshr_miss_latency::total 73438.689218                      
system.cpu.toL2Bus.snoop_filter.tot_requests          473                      
system.cpu.toL2Bus.snoop_filter.hit_single_requests            0                      
system.cpu.toL2Bus.snoop_filter.hit_multi_requests            0                      
system.cpu.toL2Bus.snoop_filter.tot_snoops            0                      
system.cpu.toL2Bus.snoop_filter.hit_single_snoops            0                      
system.cpu.toL2Bus.snoop_filter.hit_multi_snoops            0                      
system.cpu.toL2Bus.pwrStateResidencyTicks::UNDEFINED     36883000                      
system.cpu.toL2Bus.trans_dist::ReadResp           390                      
system.cpu.toL2Bus.trans_dist::ReadExReq           82                      
system.cpu.toL2Bus.trans_dist::ReadExResp           82                      
system.cpu.toL2Bus.trans_dist::ReadCleanReq          327                      
system.cpu.toL2Bus.trans_dist::ReadSharedReq           64                      
system.cpu.toL2Bus.pkt_count_system.cpu.icache.mem_side::system.cpu.l2cache.cpu_side          653                      
system.cpu.toL2Bus.pkt_count_system.cpu.dcache.mem_side::system.cpu.l2cache.cpu_side          292                      
system.cpu.toL2Bus.pkt_count::total               945                      
system.cpu.toL2Bus.pkt_size_system.cpu.icache.mem_side::system.cpu.l2cache.cpu_side        20864                      
system.cpu.toL2Bus.pkt_size_system.cpu.dcache.mem_side::system.cpu.l2cache.cpu_side         9344                      
system.cpu.toL2Bus.pkt_size::total              30208                      
system.cpu.toL2Bus.snoops                           0                      
system.cpu.toL2Bus.snoopTraffic                     0                      
system.cpu.toL2Bus.snoop_fanout::samples          473                      
system.cpu.toL2Bus.snoop_fanout::mean               0                      
system.cpu.toL2Bus.snoop_fanout::stdev              0                      
system.cpu.toL2Bus.snoop_fanout::underflows            0      0.00%      0.00%
system.cpu.toL2Bus.snoop_fanout::0                473    100.00%    100.00%
system.cpu.toL2Bus.snoop_fanout::1                  0      0.00%    100.00%
system.cpu.toL2Bus.snoop_fanout::2                  0      0.00%    100.00%
system.cpu.toL2Bus.snoop_fanout::overflows            0      0.00%    100.00%
system.cpu.toL2Bus.snoop_fanout::min_value            0                      
system.cpu.toL2Bus.snoop_fanout::max_value            0                      
system.cpu.toL2Bus.snoop_fanout::total            473                      
system.cpu.toL2Bus.reqLayer0.occupancy         236500                      
system.cpu.toL2Bus.reqLayer0.utilization          0.6                      
system.cpu.toL2Bus.respLayer0.occupancy        489000                      
system.cpu.toL2Bus.respLayer0.utilization          1.3                      
system.cpu.toL2Bus.respLayer1.occupancy        219000                      
system.cpu.toL2Bus.respLayer1.utilization          0.6                      
system.membus.snoop_filter.tot_requests           472                      
system.membus.snoop_filter.hit_single_requests            0                      
system.membus.snoop_filter.hit_multi_requests            0                      
system.membus.snoop_filter.tot_snoops               0                      
system.membus.snoop_filter.hit_single_snoops            0                      
system.membus.snoop_filter.hit_multi_snoops            0                      
system.membus.pwrStateResidencyTicks::UNDEFINED     36883000                      
system.membus.trans_dist::ReadResp                390                      
system.membus.trans_dist::ReadExReq                82                      
system.membus.trans_dist::ReadExResp               82                      
system.membus.trans_dist::ReadSharedReq           390                      
system.membus.pkt_count_system.cpu.l2cache.mem_side::system.physmem.port          944                      
system.membus.pkt_count::total                    944                      
system.membus.pkt_size_system.cpu.l2cache.mem_side::system.physmem.port        30208                      
system.membus.pkt_size::total                   30208                      
system.membus.snoops                                0                      
system.membus.snoopTraffic                          0                      
system.membus.snoop_fanout::samples               472                      
system.membus.snoop_fanout::mean                    0                      
system.membus.snoop_fanout::stdev                   0                      
system.membus.snoop_fanout::underflows              0      0.00%      0.00%
system.membus.snoop_fanout::0                     472    100.00%    100.00%
system.membus.snoop_fanout::1                       0      0.00%    100.00%
system.membus.snoop_fanout::overflows               0      0.00%    100.00%
system.membus.snoop_fanout::min_value               0                      
system.membus.snoop_fanout::max_value               0                      
system.membus.snoop_fanout::total                 472                      
system.membus.reqLayer0.occupancy              531500                      
system.membus.reqLayer0.utilization               1.4                      
system.membus.respLayer1.occupancy            2515750                      
system.membus.respLayer1.utilization              6.8                      

---------- End Simulation Statistics   ----------
