
---------- Begin Simulation Statistics ----------
sim_seconds                                  0.000277                      
sim_ticks                                   277852500                      
final_tick                                  277852500                      
sim_freq                                 1000000000000                      
host_inst_rate                                  76020                      
host_op_rate                                    76192                      
host_tick_rate                              160823477                      
host_mem_usage                                 400952                      
host_seconds                                     1.72                      
sim_insts                                      131335                      
sim_ops                                        131635                      
system.voltage_domain.voltage                       1                      
system.clk_domain.clock                          1000                      
system.physmem.pwrStateResidencyTicks::UNDEFINED    277852500                      
system.physmem.bytes_read::cpu.inst             46336                      
system.physmem.bytes_read::cpu.data             29312                      
system.physmem.bytes_read::total                75648                      
system.physmem.bytes_inst_read::cpu.inst        46336                      
system.physmem.bytes_inst_read::total           46336                      
system.physmem.num_reads::cpu.inst                724                      
system.physmem.num_reads::cpu.data                458                      
system.physmem.num_reads::total                  1182                      
system.physmem.bw_read::cpu.inst            166764740                      
system.physmem.bw_read::cpu.data            105494821                      
system.physmem.bw_read::total               272259562                      
system.physmem.bw_inst_read::cpu.inst       166764740                      
system.physmem.bw_inst_read::total          166764740                      
system.physmem.bw_total::cpu.inst           166764740                      
system.physmem.bw_total::cpu.data           105494821                      
system.physmem.bw_total::total              272259562                      
system.pwrStateResidencyTicks::UNDEFINED    277852500                      
system.cpu_clk_domain.clock                       500                      
system.cpu.dtb.read_hits                            0                      
system.cpu.dtb.read_misses                          0                      
system.cpu.dtb.read_accesses                        0                      
system.cpu.dtb.write_hits                           0                      
system.cpu.dtb.write_misses                         0                      
system.cpu.dtb.write_accesses                       0                      
system.cpu.dtb.hits                                 0                      
system.cpu.dtb.misses                               0                      
system.cpu.dtb.accesses                             0                      
system.cpu.itb.read_hits                            0                      
system.cpu.itb.read_misses                          0                      
system.cpu.itb.read_accesses                        0                      
system.cpu.itb.write_hits                           0                      
system.cpu.itb.write_misses                         0                      
system.cpu.itb.write_accesses                       0                      
system.cpu.itb.hits                                 0                      
system.cpu.itb.misses                               0                      
system.cpu.itb.accesses                             0                      
system.cpu.workload.numSyscalls                    62                      
system.cpu.pwrStateResidencyTicks::ON       277852500                      
system.cpu.numCycles                           555705                      
system.cpu.numWorkItemsStarted                      0                      
system.cpu.numWorkItemsCompleted                    0                      
system.cpu.committedInsts                      131335                      
system.cpu.committedOps                        131635                      
system.cpu.num_int_alu_accesses                130910                      
system.cpu.num_fp_alu_accesses                     40                      
system.cpu.num_vec_alu_accesses                     0                      
system.cpu.num_func_calls                        7703                      
system.cpu.num_conditional_control_insts        21038                      
system.cpu.num_int_insts                       130910                      
system.cpu.num_fp_insts                            40                      
system.cpu.num_vec_insts                            0                      
system.cpu.num_int_register_reads              163945                      
system.cpu.num_int_register_writes              86998                      
system.cpu.num_fp_register_reads                   31                      
system.cpu.num_fp_register_writes                  16                      
system.cpu.num_vec_register_reads                   0                      
system.cpu.num_vec_register_writes                  0                      
system.cpu.num_mem_refs                         51852                      
system.cpu.num_load_insts                       31669                      
system.cpu.num_store_insts                      20183                      
system.cpu.num_idle_cycles                         -0                      
system.cpu.num_busy_cycles                     555705                      
system.cpu.not_idle_fraction                        1                      
system.cpu.idle_fraction                           -0                      
system.cpu.Branches                             28741                      
system.cpu.op_class::No_OpClass                    66      0.05%      0.05%
system.cpu.op_class::IntAlu                     79604     60.44%     60.49%
system.cpu.op_class::IntMult                      164      0.12%     60.61%
system.cpu.op_class::IntDiv                         4      0.00%     60.62%
system.cpu.op_class::FloatAdd                       0      0.00%     60.62%
system.cpu.op_class::FloatCmp                       3      0.00%     60.62%
system.cpu.op_class::FloatCvt                       2      0.00%     60.62%
system.cpu.op_class::FloatMult                      0      0.00%     60.62%
system.cpu.op_class::FloatMultAcc                   0      0.00%     60.62%
system.cpu.op_class::FloatDiv                       0      0.00%     60.62%
system.cpu.op_class::FloatMisc                      2      0.00%     60.62%
system.cpu.op_class::FloatSqrt                      0      0.00%     60.62%
system.cpu.op_class::SimdAdd                        0      0.00%     60.62%
system.cpu.op_class::SimdAddAcc                     0      0.00%     60.62%
system.cpu.op_class::SimdAlu                        0      0.00%     60.62%
system.cpu.op_class::SimdCmp                        0      0.00%     60.62%
system.cpu.op_class::SimdCvt                        0      0.00%     60.62%
system.cpu.op_class::SimdMisc                       0      0.00%     60.62%
system.cpu.op_class::SimdMult                       0      0.00%     60.62%
system.cpu.op_class::SimdMultAcc                    0      0.00%     60.62%
system.cpu.op_class::SimdShift                      0      0.00%     60.62%
system.cpu.op_class::SimdShiftAcc                   0      0.00%     60.62%
system.cpu.op_class::SimdSqrt                       0      0.00%     60.62%
system.cpu.op_class::SimdFloatAdd                   0      0.00%     60.62%
system.cpu.op_class::SimdFloatAlu                   0      0.00%     60.62%
system.cpu.op_class::SimdFloatCmp                   0      0.00%     60.62%
system.cpu.op_class::SimdFloatCvt                   0      0.00%     60.62%
system.cpu.op_class::SimdFloatDiv                   0      0.00%     60.62%
system.cpu.op_class::SimdFloatMisc                  0      0.00%     60.62%
system.cpu.op_class::SimdFloatMult                  0      0.00%     60.62%
system.cpu.op_class::SimdFloatMultAcc               0      0.00%     60.62%
system.cpu.op_class::SimdFloatSqrt                  0      0.00%     60.62%
system.cpu.op_class::MemRead                    31655     24.03%     84.66%
system.cpu.op_class::MemWrite                   20164     15.31%     99.97%
system.cpu.op_class::FloatMemRead                  14      0.01%     99.98%
system.cpu.op_class::FloatMemWrite                 19      0.01%     99.99%
system.cpu.op_class::IprAccess                      0      0.00%     99.99%
system.cpu.op_class::InstPrefetch                   0      0.00%     99.99%
system.cpu.op_class::total                     131697                      
system.cpu.dcache.tags.pwrStateResidencyTicks::UNDEFINED    277852500                      
system.cpu.dcache.tags.replacements                 0                      
system.cpu.dcache.tags.tagsinuse           344.881676                      
system.cpu.dcache.tags.total_refs               51394                      
system.cpu.dcache.tags.sampled_refs               458                      
system.cpu.dcache.tags.avg_refs            112.213973                      
system.cpu.dcache.tags.warmup_cycle            134500                      
system.cpu.dcache.tags.occ_blocks::cpu.data   344.881676                      
system.cpu.dcache.tags.occ_percent::cpu.data     0.084199                      
system.cpu.dcache.tags.occ_percent::total     0.084199                      
system.cpu.dcache.tags.occ_task_id_blocks::1024          458                      
system.cpu.dcache.tags.age_task_id_blocks_1024::0           14                      
system.cpu.dcache.tags.age_task_id_blocks_1024::1           10                      
system.cpu.dcache.tags.age_task_id_blocks_1024::2          434                      
system.cpu.dcache.tags.occ_task_id_percent::1024     0.111816                      
system.cpu.dcache.tags.tag_accesses            104162                      
system.cpu.dcache.tags.data_accesses           104162                      
system.cpu.dcache.pwrStateResidencyTicks::UNDEFINED    277852500                      
system.cpu.dcache.ReadReq_hits::cpu.data        31100                      
system.cpu.dcache.ReadReq_hits::total           31100                      
system.cpu.dcache.WriteReq_hits::cpu.data        19627                      
system.cpu.dcache.WriteReq_hits::total          19627                      
system.cpu.dcache.LoadLockedReq_hits::cpu.data          333                      
system.cpu.dcache.LoadLockedReq_hits::total          333                      
system.cpu.dcache.StoreCondReq_hits::cpu.data          334                      
system.cpu.dcache.StoreCondReq_hits::total          334                      
system.cpu.dcache.demand_hits::cpu.data         50727                      
system.cpu.dcache.demand_hits::total            50727                      
system.cpu.dcache.overall_hits::cpu.data        50727                      
system.cpu.dcache.overall_hits::total           50727                      
system.cpu.dcache.ReadReq_misses::cpu.data          235                      
system.cpu.dcache.ReadReq_misses::total           235                      
system.cpu.dcache.WriteReq_misses::cpu.data          222                      
system.cpu.dcache.WriteReq_misses::total          222                      
system.cpu.dcache.LoadLockedReq_misses::cpu.data            1                      
system.cpu.dcache.LoadLockedReq_misses::total            1                      
system.cpu.dcache.demand_misses::cpu.data          457                      
system.cpu.dcache.demand_misses::total            457                      
system.cpu.dcache.overall_misses::cpu.data          457                      
system.cpu.dcache.overall_misses::total           457                      
system.cpu.dcache.ReadReq_miss_latency::cpu.data     14805000                      
system.cpu.dcache.ReadReq_miss_latency::total     14805000                      
system.cpu.dcache.WriteReq_miss_latency::cpu.data     13986000                      
system.cpu.dcache.WriteReq_miss_latency::total     13986000                      
system.cpu.dcache.LoadLockedReq_miss_latency::cpu.data        63000                      
system.cpu.dcache.LoadLockedReq_miss_latency::total        63000                      
system.cpu.dcache.demand_miss_latency::cpu.data     28791000                      
system.cpu.dcache.demand_miss_latency::total     28791000                      
system.cpu.dcache.overall_miss_latency::cpu.data     28791000                      
system.cpu.dcache.overall_miss_latency::total     28791000                      
system.cpu.dcache.ReadReq_accesses::cpu.data        31335                      
system.cpu.dcache.ReadReq_accesses::total        31335                      
system.cpu.dcache.WriteReq_accesses::cpu.data        19849                      
system.cpu.dcache.WriteReq_accesses::total        19849                      
system.cpu.dcache.LoadLockedReq_accesses::cpu.data          334                      
system.cpu.dcache.LoadLockedReq_accesses::total          334                      
system.cpu.dcache.StoreCondReq_accesses::cpu.data          334                      
system.cpu.dcache.StoreCondReq_accesses::total          334                      
system.cpu.dcache.demand_accesses::cpu.data        51184                      
system.cpu.dcache.demand_accesses::total        51184                      
system.cpu.dcache.overall_accesses::cpu.data        51184                      
system.cpu.dcache.overall_accesses::total        51184                      
system.cpu.dcache.ReadReq_miss_rate::cpu.data     0.007499                      
system.cpu.dcache.ReadReq_miss_rate::total     0.007499                      
system.cpu.dcache.WriteReq_miss_rate::cpu.data     0.011184                      
system.cpu.dcache.WriteReq_miss_rate::total     0.011184                      
system.cpu.dcache.LoadLockedReq_miss_rate::cpu.data     0.002994                      
system.cpu.dcache.LoadLockedReq_miss_rate::total     0.002994                      
system.cpu.dcache.demand_miss_rate::cpu.data     0.008928                      
system.cpu.dcache.demand_miss_rate::total     0.008928                      
system.cpu.dcache.overall_miss_rate::cpu.data     0.008928                      
system.cpu.dcache.overall_miss_rate::total     0.008928                      
system.cpu.dcache.ReadReq_avg_miss_latency::cpu.data        63000                      
system.cpu.dcache.ReadReq_avg_miss_latency::total        63000                      
system.cpu.dcache.WriteReq_avg_miss_latency::cpu.data        63000                      
system.cpu.dcache.WriteReq_avg_miss_latency::total        63000                      
system.cpu.dcache.LoadLockedReq_avg_miss_latency::cpu.data        63000                      
system.cpu.dcache.LoadLockedReq_avg_miss_latency::total        63000                      
system.cpu.dcache.demand_avg_miss_latency::cpu.data        63000                      
system.cpu.dcache.demand_avg_miss_latency::total        63000                      
system.cpu.dcache.overall_avg_miss_latency::cpu.data        63000                      
system.cpu.dcache.overall_avg_miss_latency::total        63000                      
system.cpu.dcache.blocked_cycles::no_mshrs            0                      
system.cpu.dcache.blocked_cycles::no_targets            0                      
system.cpu.dcache.blocked::no_mshrs                 0                      
system.cpu.dcache.blocked::no_targets               0                      
system.cpu.dcache.avg_blocked_cycles::no_mshrs          nan                      
system.cpu.dcache.avg_blocked_cycles::no_targets          nan                      
system.cpu.dcache.ReadReq_mshr_misses::cpu.data          235                      
system.cpu.dcache.ReadReq_mshr_misses::total          235                      
system.cpu.dcache.WriteReq_mshr_misses::cpu.data          222                      
system.cpu.dcache.WriteReq_mshr_misses::total          222                      
system.cpu.dcache.LoadLockedReq_mshr_misses::cpu.data            1                      
system.cpu.dcache.LoadLockedReq_mshr_misses::total            1                      
system.cpu.dcache.demand_mshr_misses::cpu.data          457                      
system.cpu.dcache.demand_mshr_misses::total          457                      
system.cpu.dcache.overall_mshr_misses::cpu.data          457                      
system.cpu.dcache.overall_mshr_misses::total          457                      
system.cpu.dcache.ReadReq_mshr_miss_latency::cpu.data     14570000                      
system.cpu.dcache.ReadReq_mshr_miss_latency::total     14570000                      
system.cpu.dcache.WriteReq_mshr_miss_latency::cpu.data     13764000                      
system.cpu.dcache.WriteReq_mshr_miss_latency::total     13764000                      
system.cpu.dcache.LoadLockedReq_mshr_miss_latency::cpu.data        62000                      
system.cpu.dcache.LoadLockedReq_mshr_miss_latency::total        62000                      
system.cpu.dcache.demand_mshr_miss_latency::cpu.data     28334000                      
system.cpu.dcache.demand_mshr_miss_latency::total     28334000                      
system.cpu.dcache.overall_mshr_miss_latency::cpu.data     28334000                      
system.cpu.dcache.overall_mshr_miss_latency::total     28334000                      
system.cpu.dcache.ReadReq_mshr_miss_rate::cpu.data     0.007499                      
system.cpu.dcache.ReadReq_mshr_miss_rate::total     0.007499                      
system.cpu.dcache.WriteReq_mshr_miss_rate::cpu.data     0.011184                      
system.cpu.dcache.WriteReq_mshr_miss_rate::total     0.011184                      
system.cpu.dcache.LoadLockedReq_mshr_miss_rate::cpu.data     0.002994                      
system.cpu.dcache.LoadLockedReq_mshr_miss_rate::total     0.002994                      
system.cpu.dcache.demand_mshr_miss_rate::cpu.data     0.008928                      
system.cpu.dcache.demand_mshr_miss_rate::total     0.008928                      
system.cpu.dcache.overall_mshr_miss_rate::cpu.data     0.008928                      
system.cpu.dcache.overall_mshr_miss_rate::total     0.008928                      
system.cpu.dcache.ReadReq_avg_mshr_miss_latency::cpu.data        62000                      
system.cpu.dcache.ReadReq_avg_mshr_miss_latency::total        62000                      
system.cpu.dcache.WriteReq_avg_mshr_miss_latency::cpu.data        62000                      
system.cpu.dcache.WriteReq_avg_mshr_miss_latency::total        62000                      
system.cpu.dcache.LoadLockedReq_avg_mshr_miss_latency::cpu.data        62000                      
system.cpu.dcache.LoadLockedReq_avg_mshr_miss_latency::total        62000                      
system.cpu.dcache.demand_avg_mshr_miss_latency::cpu.data        62000                      
system.cpu.dcache.demand_avg_mshr_miss_latency::total        62000                      
system.cpu.dcache.overall_avg_mshr_miss_latency::cpu.data        62000                      
system.cpu.dcache.overall_avg_mshr_miss_latency::total        62000                      
system.cpu.icache.tags.pwrStateResidencyTicks::UNDEFINED    277852500                      
system.cpu.icache.tags.replacements                39                      
system.cpu.icache.tags.tagsinuse           443.113886                      
system.cpu.icache.tags.total_refs              151966                      
system.cpu.icache.tags.sampled_refs               726                      
system.cpu.icache.tags.avg_refs            209.319559                      
system.cpu.icache.tags.warmup_cycle             62500                      
system.cpu.icache.tags.occ_blocks::cpu.inst   443.113886                      
system.cpu.icache.tags.occ_percent::cpu.inst     0.216364                      
system.cpu.icache.tags.occ_percent::total     0.216364                      
system.cpu.icache.tags.occ_task_id_blocks::1024          687                      
system.cpu.icache.tags.age_task_id_blocks_1024::0           40                      
system.cpu.icache.tags.age_task_id_blocks_1024::1           75                      
system.cpu.icache.tags.age_task_id_blocks_1024::2          572                      
system.cpu.icache.tags.occ_task_id_percent::1024     0.335449                      
system.cpu.icache.tags.tag_accesses            306110                      
system.cpu.icache.tags.data_accesses           306110                      
system.cpu.icache.pwrStateResidencyTicks::UNDEFINED    277852500                      
system.cpu.icache.ReadReq_hits::cpu.inst       151966                      
system.cpu.icache.ReadReq_hits::total          151966                      
system.cpu.icache.demand_hits::cpu.inst        151966                      
system.cpu.icache.demand_hits::total           151966                      
system.cpu.icache.overall_hits::cpu.inst       151966                      
system.cpu.icache.overall_hits::total          151966                      
system.cpu.icache.ReadReq_misses::cpu.inst          726                      
system.cpu.icache.ReadReq_misses::total           726                      
system.cpu.icache.demand_misses::cpu.inst          726                      
system.cpu.icache.demand_misses::total            726                      
system.cpu.icache.overall_misses::cpu.inst          726                      
system.cpu.icache.overall_misses::total           726                      
system.cpu.icache.ReadReq_miss_latency::cpu.inst     45639500                      
system.cpu.icache.ReadReq_miss_latency::total     45639500                      
system.cpu.icache.demand_miss_latency::cpu.inst     45639500                      
system.cpu.icache.demand_miss_latency::total     45639500                      
system.cpu.icache.overall_miss_latency::cpu.inst     45639500                      
system.cpu.icache.overall_miss_latency::total     45639500                      
system.cpu.icache.ReadReq_accesses::cpu.inst       152692                      
system.cpu.icache.ReadReq_accesses::total       152692                      
system.cpu.icache.demand_accesses::cpu.inst       152692                      
system.cpu.icache.demand_accesses::total       152692                      
system.cpu.icache.overall_accesses::cpu.inst       152692                      
system.cpu.icache.overall_accesses::total       152692                      
system.cpu.icache.ReadReq_miss_rate::cpu.inst     0.004754                      
system.cpu.icache.ReadReq_miss_rate::total     0.004754                      
system.cpu.icache.demand_miss_rate::cpu.inst     0.004754                      
system.cpu.icache.demand_miss_rate::total     0.004754                      
system.cpu.icache.overall_miss_rate::cpu.inst     0.004754                      
system.cpu.icache.overall_miss_rate::total     0.004754                      
system.cpu.icache.ReadReq_avg_miss_latency::cpu.inst 62864.325068                      
system.cpu.icache.ReadReq_avg_miss_latency::total 62864.325068                      
system.cpu.icache.demand_avg_miss_latency::cpu.inst 62864.325068                      
system.cpu.icache.demand_avg_miss_latency::total 62864.325068                      
system.cpu.icache.overall_avg_miss_latency::cpu.inst 62864.325068                      
system.cpu.icache.overall_avg_miss_latency::total 62864.325068                      
system.cpu.icache.blocked_cycles::no_mshrs            0                      
system.cpu.icache.blocked_cycles::no_targets            0                      
system.cpu.icache.blocked::no_mshrs                 0                      
system.cpu.icache.blocked::no_targets               0                      
system.cpu.icache.avg_blocked_cycles::no_mshrs          nan                      
system.cpu.icache.avg_blocked_cycles::no_targets          nan                      
system.cpu.icache.writebacks::writebacks           39                      
system.cpu.icache.writebacks::total                39                      
system.cpu.icache.ReadReq_mshr_misses::cpu.inst          726                      
system.cpu.icache.ReadReq_mshr_misses::total          726                      
system.cpu.icache.demand_mshr_misses::cpu.inst          726                      
system.cpu.icache.demand_mshr_misses::total          726                      
system.cpu.icache.overall_mshr_misses::cpu.inst          726                      
system.cpu.icache.overall_mshr_misses::total          726                      
system.cpu.icache.ReadReq_mshr_miss_latency::cpu.inst     44913500                      
system.cpu.icache.ReadReq_mshr_miss_latency::total     44913500                      
system.cpu.icache.demand_mshr_miss_latency::cpu.inst     44913500                      
system.cpu.icache.demand_mshr_miss_latency::total     44913500                      
system.cpu.icache.overall_mshr_miss_latency::cpu.inst     44913500                      
system.cpu.icache.overall_mshr_miss_latency::total     44913500                      
system.cpu.icache.ReadReq_mshr_miss_rate::cpu.inst     0.004754                      
system.cpu.icache.ReadReq_mshr_miss_rate::total     0.004754                      
system.cpu.icache.demand_mshr_miss_rate::cpu.inst     0.004754                      
system.cpu.icache.demand_mshr_miss_rate::total     0.004754                      
system.cpu.icache.overall_mshr_miss_rate::cpu.inst     0.004754                      
system.cpu.icache.overall_mshr_miss_rate::total     0.004754                      
system.cpu.icache.ReadReq_avg_mshr_miss_latency::cpu.inst 61864.325068                      
system.cpu.icache.ReadReq_avg_mshr_miss_latency::total 61864.325068                      
system.cpu.icache.demand_avg_mshr_miss_latency::cpu.inst 61864.325068                      
system.cpu.icache.demand_avg_mshr_miss_latency::total 61864.325068                      
system.cpu.icache.overall_avg_mshr_miss_latency::cpu.inst 61864.325068                      
system.cpu.icache.overall_avg_mshr_miss_latency::total 61864.325068                      
system.cpu.l2cache.tags.pwrStateResidencyTicks::UNDEFINED    277852500                      
system.cpu.l2cache.tags.replacements                0                      
system.cpu.l2cache.tags.tagsinuse          806.763168                      
system.cpu.l2cache.tags.total_refs                 41                      
system.cpu.l2cache.tags.sampled_refs             1182                      
system.cpu.l2cache.tags.avg_refs             0.034686                      
system.cpu.l2cache.tags.warmup_cycle            52000                      
system.cpu.l2cache.tags.occ_blocks::cpu.inst   461.864184                      
system.cpu.l2cache.tags.occ_blocks::cpu.data   344.898984                      
system.cpu.l2cache.tags.occ_percent::cpu.inst     0.014094                      
system.cpu.l2cache.tags.occ_percent::cpu.data     0.010525                      
system.cpu.l2cache.tags.occ_percent::total     0.024620                      
system.cpu.l2cache.tags.occ_task_id_blocks::1024         1182                      
system.cpu.l2cache.tags.age_task_id_blocks_1024::0           54                      
system.cpu.l2cache.tags.age_task_id_blocks_1024::1           85                      
system.cpu.l2cache.tags.age_task_id_blocks_1024::2         1043                      
system.cpu.l2cache.tags.occ_task_id_percent::1024     0.036071                      
system.cpu.l2cache.tags.tag_accesses            10966                      
system.cpu.l2cache.tags.data_accesses           10966                      
system.cpu.l2cache.pwrStateResidencyTicks::UNDEFINED    277852500                      
system.cpu.l2cache.WritebackClean_hits::writebacks           39                      
system.cpu.l2cache.WritebackClean_hits::total           39                      
system.cpu.l2cache.ReadCleanReq_hits::cpu.inst            2                      
system.cpu.l2cache.ReadCleanReq_hits::total            2                      
system.cpu.l2cache.demand_hits::cpu.inst            2                      
system.cpu.l2cache.demand_hits::total               2                      
system.cpu.l2cache.overall_hits::cpu.inst            2                      
system.cpu.l2cache.overall_hits::total              2                      
system.cpu.l2cache.ReadExReq_misses::cpu.data          222                      
system.cpu.l2cache.ReadExReq_misses::total          222                      
system.cpu.l2cache.ReadCleanReq_misses::cpu.inst          724                      
system.cpu.l2cache.ReadCleanReq_misses::total          724                      
system.cpu.l2cache.ReadSharedReq_misses::cpu.data          236                      
system.cpu.l2cache.ReadSharedReq_misses::total          236                      
system.cpu.l2cache.demand_misses::cpu.inst          724                      
system.cpu.l2cache.demand_misses::cpu.data          458                      
system.cpu.l2cache.demand_misses::total          1182                      
system.cpu.l2cache.overall_misses::cpu.inst          724                      
system.cpu.l2cache.overall_misses::cpu.data          458                      
system.cpu.l2cache.overall_misses::total         1182                      
system.cpu.l2cache.ReadExReq_miss_latency::cpu.data     13431000                      
system.cpu.l2cache.ReadExReq_miss_latency::total     13431000                      
system.cpu.l2cache.ReadCleanReq_miss_latency::cpu.inst     43803000                      
system.cpu.l2cache.ReadCleanReq_miss_latency::total     43803000                      
system.cpu.l2cache.ReadSharedReq_miss_latency::cpu.data     14278000                      
system.cpu.l2cache.ReadSharedReq_miss_latency::total     14278000                      
system.cpu.l2cache.demand_miss_latency::cpu.inst     43803000                      
system.cpu.l2cache.demand_miss_latency::cpu.data     27709000                      
system.cpu.l2cache.demand_miss_latency::total     71512000                      
system.cpu.l2cache.overall_miss_latency::cpu.inst     43803000                      
system.cpu.l2cache.overall_miss_latency::cpu.data     27709000                      
system.cpu.l2cache.overall_miss_latency::total     71512000                      
system.cpu.l2cache.WritebackClean_accesses::writebacks           39                      
system.cpu.l2cache.WritebackClean_accesses::total           39                      
system.cpu.l2cache.ReadExReq_accesses::cpu.data          222                      
system.cpu.l2cache.ReadExReq_accesses::total          222                      
system.cpu.l2cache.ReadCleanReq_accesses::cpu.inst          726                      
system.cpu.l2cache.ReadCleanReq_accesses::total          726                      
system.cpu.l2cache.ReadSharedReq_accesses::cpu.data          236                      
system.cpu.l2cache.ReadSharedReq_accesses::total          236                      
system.cpu.l2cache.demand_accesses::cpu.inst          726                      
system.cpu.l2cache.demand_accesses::cpu.data          458                      
system.cpu.l2cache.demand_accesses::total         1184                      
system.cpu.l2cache.overall_accesses::cpu.inst          726                      
system.cpu.l2cache.overall_accesses::cpu.data          458                      
system.cpu.l2cache.overall_accesses::total         1184                      
system.cpu.l2cache.ReadExReq_miss_rate::cpu.data            1                      
system.cpu.l2cache.ReadExReq_miss_rate::total            1                      
system.cpu.l2cache.ReadCleanReq_miss_rate::cpu.inst     0.997245                      
system.cpu.l2cache.ReadCleanReq_miss_rate::total     0.997245                      
system.cpu.l2cache.ReadSharedReq_miss_rate::cpu.data            1                      
system.cpu.l2cache.ReadSharedReq_miss_rate::total            1                      
system.cpu.l2cache.demand_miss_rate::cpu.inst     0.997245                      
system.cpu.l2cache.demand_miss_rate::cpu.data            1                      
system.cpu.l2cache.demand_miss_rate::total     0.998310                      
system.cpu.l2cache.overall_miss_rate::cpu.inst     0.997245                      
system.cpu.l2cache.overall_miss_rate::cpu.data            1                      
system.cpu.l2cache.overall_miss_rate::total     0.998310                      
system.cpu.l2cache.ReadExReq_avg_miss_latency::cpu.data        60500                      
system.cpu.l2cache.ReadExReq_avg_miss_latency::total        60500                      
system.cpu.l2cache.ReadCleanReq_avg_miss_latency::cpu.inst 60501.381215                      
system.cpu.l2cache.ReadCleanReq_avg_miss_latency::total 60501.381215                      
system.cpu.l2cache.ReadSharedReq_avg_miss_latency::cpu.data        60500                      
system.cpu.l2cache.ReadSharedReq_avg_miss_latency::total        60500                      
system.cpu.l2cache.demand_avg_miss_latency::cpu.inst 60501.381215                      
system.cpu.l2cache.demand_avg_miss_latency::cpu.data        60500                      
system.cpu.l2cache.demand_avg_miss_latency::total 60500.846023                      
system.cpu.l2cache.overall_avg_miss_latency::cpu.inst 60501.381215                      
system.cpu.l2cache.overall_avg_miss_latency::cpu.data        60500                      
system.cpu.l2cache.overall_avg_miss_latency::total 60500.846023                      
system.cpu.l2cache.blocked_cycles::no_mshrs            0                      
system.cpu.l2cache.blocked_cycles::no_targets            0                      
system.cpu.l2cache.blocked::no_mshrs                0                      
system.cpu.l2cache.blocked::no_targets              0                      
system.cpu.l2cache.avg_blocked_cycles::no_mshrs          nan                      
system.cpu.l2cache.avg_blocked_cycles::no_targets          nan                      
system.cpu.l2cache.ReadExReq_mshr_misses::cpu.data          222                      
system.cpu.l2cache.ReadExReq_mshr_misses::total          222                      
system.cpu.l2cache.ReadCleanReq_mshr_misses::cpu.inst          724                      
system.cpu.l2cache.ReadCleanReq_mshr_misses::total          724                      
system.cpu.l2cache.ReadSharedReq_mshr_misses::cpu.data          236                      
system.cpu.l2cache.ReadSharedReq_mshr_misses::total          236                      
system.cpu.l2cache.demand_mshr_misses::cpu.inst          724                      
system.cpu.l2cache.demand_mshr_misses::cpu.data          458                      
system.cpu.l2cache.demand_mshr_misses::total         1182                      
system.cpu.l2cache.overall_mshr_misses::cpu.inst          724                      
system.cpu.l2cache.overall_mshr_misses::cpu.data          458                      
system.cpu.l2cache.overall_mshr_misses::total         1182                      
system.cpu.l2cache.ReadExReq_mshr_miss_latency::cpu.data     11211000                      
system.cpu.l2cache.ReadExReq_mshr_miss_latency::total     11211000                      
system.cpu.l2cache.ReadCleanReq_mshr_miss_latency::cpu.inst     36563000                      
system.cpu.l2cache.ReadCleanReq_mshr_miss_latency::total     36563000                      
system.cpu.l2cache.ReadSharedReq_mshr_miss_latency::cpu.data     11918000                      
system.cpu.l2cache.ReadSharedReq_mshr_miss_latency::total     11918000                      
system.cpu.l2cache.demand_mshr_miss_latency::cpu.inst     36563000                      
system.cpu.l2cache.demand_mshr_miss_latency::cpu.data     23129000                      
system.cpu.l2cache.demand_mshr_miss_latency::total     59692000                      
system.cpu.l2cache.overall_mshr_miss_latency::cpu.inst     36563000                      
system.cpu.l2cache.overall_mshr_miss_latency::cpu.data     23129000                      
system.cpu.l2cache.overall_mshr_miss_latency::total     59692000                      
system.cpu.l2cache.ReadExReq_mshr_miss_rate::cpu.data            1                      
system.cpu.l2cache.ReadExReq_mshr_miss_rate::total            1                      
system.cpu.l2cache.ReadCleanReq_mshr_miss_rate::cpu.inst     0.997245                      
system.cpu.l2cache.ReadCleanReq_mshr_miss_rate::total     0.997245                      
system.cpu.l2cache.ReadSharedReq_mshr_miss_rate::cpu.data            1                      
system.cpu.l2cache.ReadSharedReq_mshr_miss_rate::total            1                      
system.cpu.l2cache.demand_mshr_miss_rate::cpu.inst     0.997245                      
system.cpu.l2cache.demand_mshr_miss_rate::cpu.data            1                      
system.cpu.l2cache.demand_mshr_miss_rate::total     0.998310                      
system.cpu.l2cache.overall_mshr_miss_rate::cpu.inst     0.997245                      
system.cpu.l2cache.overall_mshr_miss_rate::cpu.data            1                      
system.cpu.l2cache.overall_mshr_miss_rate::total     0.998310                      
system.cpu.l2cache.ReadExReq_avg_mshr_miss_latency::cpu.data        50500                      
system.cpu.l2cache.ReadExReq_avg_mshr_miss_latency::total        50500                      
system.cpu.l2cache.ReadCleanReq_avg_mshr_miss_latency::cpu.inst 50501.381215                      
system.cpu.l2cache.ReadCleanReq_avg_mshr_miss_latency::total 50501.381215                      
system.cpu.l2cache.ReadSharedReq_avg_mshr_miss_latency::cpu.data        50500                      
system.cpu.l2cache.ReadSharedReq_avg_mshr_miss_latency::total        50500                      
system.cpu.l2cache.demand_avg_mshr_miss_latency::cpu.inst 50501.381215                      
system.cpu.l2cache.demand_avg_mshr_miss_latency::cpu.data        50500                      
system.cpu.l2cache.demand_avg_mshr_miss_latency::total 50500.846023                      
system.cpu.l2cache.overall_avg_mshr_miss_latency::cpu.inst 50501.381215                      
system.cpu.l2cache.overall_avg_mshr_miss_latency::cpu.data        50500                      
system.cpu.l2cache.overall_avg_mshr_miss_latency::total 50500.846023                      
system.cpu.toL2Bus.snoop_filter.tot_requests         1223                      
system.cpu.toL2Bus.snoop_filter.hit_single_requests           39                      
system.cpu.toL2Bus.snoop_filter.hit_multi_requests            0                      
system.cpu.toL2Bus.snoop_filter.tot_snoops            0                      
system.cpu.toL2Bus.snoop_filter.hit_single_snoops            0                      
system.cpu.toL2Bus.snoop_filter.hit_multi_snoops            0                      
system.cpu.toL2Bus.pwrStateResidencyTicks::UNDEFINED    277852500                      
system.cpu.toL2Bus.trans_dist::ReadResp           962                      
system.cpu.toL2Bus.trans_dist::WritebackClean           39                      
system.cpu.toL2Bus.trans_dist::ReadExReq          222                      
system.cpu.toL2Bus.trans_dist::ReadExResp          222                      
system.cpu.toL2Bus.trans_dist::ReadCleanReq          726                      
system.cpu.toL2Bus.trans_dist::ReadSharedReq          236                      
system.cpu.toL2Bus.pkt_count_system.cpu.icache.mem_side::system.cpu.l2cache.cpu_side         1491                      
system.cpu.toL2Bus.pkt_count_system.cpu.dcache.mem_side::system.cpu.l2cache.cpu_side          916                      
system.cpu.toL2Bus.pkt_count::total              2407                      
system.cpu.toL2Bus.pkt_size_system.cpu.icache.mem_side::system.cpu.l2cache.cpu_side        48960                      
system.cpu.toL2Bus.pkt_size_system.cpu.dcache.mem_side::system.cpu.l2cache.cpu_side        29312                      
system.cpu.toL2Bus.pkt_size::total              78272                      
system.cpu.toL2Bus.snoops                           0                      
system.cpu.toL2Bus.snoopTraffic                     0                      
system.cpu.toL2Bus.snoop_fanout::samples         1184                      
system.cpu.toL2Bus.snoop_fanout::mean               0                      
system.cpu.toL2Bus.snoop_fanout::stdev             -0                      
system.cpu.toL2Bus.snoop_fanout::underflows            0      0.00%      0.00%
system.cpu.toL2Bus.snoop_fanout::0               1184    100.00%    100.00%
system.cpu.toL2Bus.snoop_fanout::1                  0      0.00%    100.00%
system.cpu.toL2Bus.snoop_fanout::2                  0      0.00%    100.00%
system.cpu.toL2Bus.snoop_fanout::overflows            0      0.00%    100.00%
system.cpu.toL2Bus.snoop_fanout::min_value            0                      
system.cpu.toL2Bus.snoop_fanout::max_value            0                      
system.cpu.toL2Bus.snoop_fanout::total           1184                      
system.cpu.toL2Bus.reqLayer0.occupancy         650500                      
system.cpu.toL2Bus.reqLayer0.utilization          0.2                      
system.cpu.toL2Bus.respLayer0.occupancy       1089000                      
system.cpu.toL2Bus.respLayer0.utilization          0.3                      
system.cpu.toL2Bus.respLayer1.occupancy        687000                      
system.cpu.toL2Bus.respLayer1.utilization          0.2                      
system.membus.snoop_filter.tot_requests          1182                      
system.membus.snoop_filter.hit_single_requests            0                      
system.membus.snoop_filter.hit_multi_requests            0                      
system.membus.snoop_filter.tot_snoops               0                      
system.membus.snoop_filter.hit_single_snoops            0                      
system.membus.snoop_filter.hit_multi_snoops            0                      
system.membus.pwrStateResidencyTicks::UNDEFINED    277852500                      
system.membus.trans_dist::ReadResp                960                      
system.membus.trans_dist::ReadExReq               222                      
system.membus.trans_dist::ReadExResp              222                      
system.membus.trans_dist::ReadSharedReq           960                      
system.membus.pkt_count_system.cpu.l2cache.mem_side::system.physmem.port         2364                      
system.membus.pkt_count::total                   2364                      
system.membus.pkt_size_system.cpu.l2cache.mem_side::system.physmem.port        75648                      
system.membus.pkt_size::total                   75648                      
system.membus.snoops                                0                      
system.membus.snoopTraffic                          0                      
system.membus.snoop_fanout::samples              1182                      
system.membus.snoop_fanout::mean                    0                      
system.membus.snoop_fanout::stdev                  -0                      
system.membus.snoop_fanout::underflows              0      0.00%      0.00%
system.membus.snoop_fanout::0                    1182    100.00%    100.00%
system.membus.snoop_fanout::1                       0      0.00%    100.00%
system.membus.snoop_fanout::overflows               0      0.00%    100.00%
system.membus.snoop_fanout::min_value               0                      
system.membus.snoop_fanout::max_value               0                      
system.membus.snoop_fanout::total                1182                      
system.membus.reqLayer0.occupancy             1183000                      
system.membus.reqLayer0.utilization               0.4                      
system.membus.respLayer1.occupancy            5910000                      
system.membus.respLayer1.utilization              2.1                      

---------- End Simulation Statistics   ----------
