
---------- Begin Simulation Statistics ----------
sim_seconds                                  0.002307                      
sim_ticks                                     2307220                      
final_tick                                    2307220                      
sim_freq                                   1000000000                      
host_inst_rate                                  43054                      
host_op_rate                                    43152                      
host_tick_rate                                 756349                      
host_mem_usage                                 569496                      
host_seconds                                     3.05                      
sim_insts                                      131335                      
sim_ops                                        131635                      
system.voltage_domain.voltage                       1                      
system.clk_domain.clock                             1                      
system.mem_ctrls.pwrStateResidencyTicks::UNDEFINED      2307220                      
system.mem_ctrls.bytes_read::ruby.dir_cntrl0      2268352                      
system.mem_ctrls.bytes_read::total            2268352                      
system.mem_ctrls.bytes_written::ruby.dir_cntrl0      2268096                      
system.mem_ctrls.bytes_written::total         2268096                      
system.mem_ctrls.num_reads::ruby.dir_cntrl0        35443                      
system.mem_ctrls.num_reads::total               35443                      
system.mem_ctrls.num_writes::ruby.dir_cntrl0        35439                      
system.mem_ctrls.num_writes::total              35439                      
system.mem_ctrls.bw_read::ruby.dir_cntrl0    983153752                      
system.mem_ctrls.bw_read::total             983153752                      
system.mem_ctrls.bw_write::ruby.dir_cntrl0    983042796                      
system.mem_ctrls.bw_write::total            983042796                      
system.mem_ctrls.bw_total::ruby.dir_cntrl0   1966196548                      
system.mem_ctrls.bw_total::total           1966196548                      
system.mem_ctrls.readReqs                       35443                      
system.mem_ctrls.writeReqs                      35439                      
system.mem_ctrls.readBursts                     35443                      
system.mem_ctrls.writeBursts                    35439                      
system.mem_ctrls.bytesReadDRAM                1043008                      
system.mem_ctrls.bytesReadWrQ                 1225344                      
system.mem_ctrls.bytesWritten                 1102656                      
system.mem_ctrls.bytesReadSys                 2268352                      
system.mem_ctrls.bytesWrittenSys              2268096                      
system.mem_ctrls.servicedByWrQ                  19146                      
system.mem_ctrls.mergedWrBursts                 18185                      
system.mem_ctrls.neitherReadNorWriteReqs            0                      
system.mem_ctrls.perBankRdBursts::0               301                      
system.mem_ctrls.perBankRdBursts::1              1038                      
system.mem_ctrls.perBankRdBursts::2               503                      
system.mem_ctrls.perBankRdBursts::3              1500                      
system.mem_ctrls.perBankRdBursts::4               727                      
system.mem_ctrls.perBankRdBursts::5               107                      
system.mem_ctrls.perBankRdBursts::6                89                      
system.mem_ctrls.perBankRdBursts::7               322                      
system.mem_ctrls.perBankRdBursts::8               650                      
system.mem_ctrls.perBankRdBursts::9              1847                      
system.mem_ctrls.perBankRdBursts::10             1128                      
system.mem_ctrls.perBankRdBursts::11             2189                      
system.mem_ctrls.perBankRdBursts::12              816                      
system.mem_ctrls.perBankRdBursts::13             2840                      
system.mem_ctrls.perBankRdBursts::14             1299                      
system.mem_ctrls.perBankRdBursts::15              941                      
system.mem_ctrls.perBankWrBursts::0               302                      
system.mem_ctrls.perBankWrBursts::1              1051                      
system.mem_ctrls.perBankWrBursts::2               528                      
system.mem_ctrls.perBankWrBursts::3              1562                      
system.mem_ctrls.perBankWrBursts::4               776                      
system.mem_ctrls.perBankWrBursts::5               113                      
system.mem_ctrls.perBankWrBursts::6                91                      
system.mem_ctrls.perBankWrBursts::7               332                      
system.mem_ctrls.perBankWrBursts::8               677                      
system.mem_ctrls.perBankWrBursts::9              2015                      
system.mem_ctrls.perBankWrBursts::10             1143                      
system.mem_ctrls.perBankWrBursts::11             2280                      
system.mem_ctrls.perBankWrBursts::12              844                      
system.mem_ctrls.perBankWrBursts::13             3206                      
system.mem_ctrls.perBankWrBursts::14             1348                      
system.mem_ctrls.perBankWrBursts::15              961                      
system.mem_ctrls.numRdRetry                         0                      
system.mem_ctrls.numWrRetry                         0                      
system.mem_ctrls.totGap                       2307134                      
system.mem_ctrls.readPktSize::0                     0                      
system.mem_ctrls.readPktSize::1                     0                      
system.mem_ctrls.readPktSize::2                     0                      
system.mem_ctrls.readPktSize::3                     0                      
system.mem_ctrls.readPktSize::4                     0                      
system.mem_ctrls.readPktSize::5                     0                      
system.mem_ctrls.readPktSize::6                 35443                      
system.mem_ctrls.writePktSize::0                    0                      
system.mem_ctrls.writePktSize::1                    0                      
system.mem_ctrls.writePktSize::2                    0                      
system.mem_ctrls.writePktSize::3                    0                      
system.mem_ctrls.writePktSize::4                    0                      
system.mem_ctrls.writePktSize::5                    0                      
system.mem_ctrls.writePktSize::6                35439                      
system.mem_ctrls.rdQLenPdf::0                   16297                      
system.mem_ctrls.rdQLenPdf::1                       0                      
system.mem_ctrls.rdQLenPdf::2                       0                      
system.mem_ctrls.rdQLenPdf::3                       0                      
system.mem_ctrls.rdQLenPdf::4                       0                      
system.mem_ctrls.rdQLenPdf::5                       0                      
system.mem_ctrls.rdQLenPdf::6                       0                      
system.mem_ctrls.rdQLenPdf::7                       0                      
system.mem_ctrls.rdQLenPdf::8                       0                      
system.mem_ctrls.rdQLenPdf::9                       0                      
system.mem_ctrls.rdQLenPdf::10                      0                      
system.mem_ctrls.rdQLenPdf::11                      0                      
system.mem_ctrls.rdQLenPdf::12                      0                      
system.mem_ctrls.rdQLenPdf::13                      0                      
system.mem_ctrls.rdQLenPdf::14                      0                      
system.mem_ctrls.rdQLenPdf::15                      0                      
system.mem_ctrls.rdQLenPdf::16                      0                      
system.mem_ctrls.rdQLenPdf::17                      0                      
system.mem_ctrls.rdQLenPdf::18                      0                      
system.mem_ctrls.rdQLenPdf::19                      0                      
system.mem_ctrls.rdQLenPdf::20                      0                      
system.mem_ctrls.rdQLenPdf::21                      0                      
system.mem_ctrls.rdQLenPdf::22                      0                      
system.mem_ctrls.rdQLenPdf::23                      0                      
system.mem_ctrls.rdQLenPdf::24                      0                      
system.mem_ctrls.rdQLenPdf::25                      0                      
system.mem_ctrls.rdQLenPdf::26                      0                      
system.mem_ctrls.rdQLenPdf::27                      0                      
system.mem_ctrls.rdQLenPdf::28                      0                      
system.mem_ctrls.rdQLenPdf::29                      0                      
system.mem_ctrls.rdQLenPdf::30                      0                      
system.mem_ctrls.rdQLenPdf::31                      0                      
system.mem_ctrls.wrQLenPdf::0                       1                      
system.mem_ctrls.wrQLenPdf::1                       1                      
system.mem_ctrls.wrQLenPdf::2                       1                      
system.mem_ctrls.wrQLenPdf::3                       1                      
system.mem_ctrls.wrQLenPdf::4                       1                      
system.mem_ctrls.wrQLenPdf::5                       1                      
system.mem_ctrls.wrQLenPdf::6                       1                      
system.mem_ctrls.wrQLenPdf::7                       1                      
system.mem_ctrls.wrQLenPdf::8                       1                      
system.mem_ctrls.wrQLenPdf::9                       1                      
system.mem_ctrls.wrQLenPdf::10                      1                      
system.mem_ctrls.wrQLenPdf::11                      1                      
system.mem_ctrls.wrQLenPdf::12                      1                      
system.mem_ctrls.wrQLenPdf::13                      1                      
system.mem_ctrls.wrQLenPdf::14                      1                      
system.mem_ctrls.wrQLenPdf::15                    193                      
system.mem_ctrls.wrQLenPdf::16                    228                      
system.mem_ctrls.wrQLenPdf::17                    924                      
system.mem_ctrls.wrQLenPdf::18                   1079                      
system.mem_ctrls.wrQLenPdf::19                   1072                      
system.mem_ctrls.wrQLenPdf::20                   1100                      
system.mem_ctrls.wrQLenPdf::21                   1129                      
system.mem_ctrls.wrQLenPdf::22                   1077                      
system.mem_ctrls.wrQLenPdf::23                   1046                      
system.mem_ctrls.wrQLenPdf::24                   1045                      
system.mem_ctrls.wrQLenPdf::25                   1044                      
system.mem_ctrls.wrQLenPdf::26                   1043                      
system.mem_ctrls.wrQLenPdf::27                   1043                      
system.mem_ctrls.wrQLenPdf::28                   1042                      
system.mem_ctrls.wrQLenPdf::29                   1043                      
system.mem_ctrls.wrQLenPdf::30                   1045                      
system.mem_ctrls.wrQLenPdf::31                   1043                      
system.mem_ctrls.wrQLenPdf::32                   1042                      
system.mem_ctrls.wrQLenPdf::33                      1                      
system.mem_ctrls.wrQLenPdf::34                      0                      
system.mem_ctrls.wrQLenPdf::35                      0                      
system.mem_ctrls.wrQLenPdf::36                      0                      
system.mem_ctrls.wrQLenPdf::37                      0                      
system.mem_ctrls.wrQLenPdf::38                      0                      
system.mem_ctrls.wrQLenPdf::39                      0                      
system.mem_ctrls.wrQLenPdf::40                      0                      
system.mem_ctrls.wrQLenPdf::41                      0                      
system.mem_ctrls.wrQLenPdf::42                      0                      
system.mem_ctrls.wrQLenPdf::43                      0                      
system.mem_ctrls.wrQLenPdf::44                      0                      
system.mem_ctrls.wrQLenPdf::45                      0                      
system.mem_ctrls.wrQLenPdf::46                      0                      
system.mem_ctrls.wrQLenPdf::47                      0                      
system.mem_ctrls.wrQLenPdf::48                      0                      
system.mem_ctrls.wrQLenPdf::49                      0                      
system.mem_ctrls.wrQLenPdf::50                      0                      
system.mem_ctrls.wrQLenPdf::51                      0                      
system.mem_ctrls.wrQLenPdf::52                      0                      
system.mem_ctrls.wrQLenPdf::53                      0                      
system.mem_ctrls.wrQLenPdf::54                      0                      
system.mem_ctrls.wrQLenPdf::55                      0                      
system.mem_ctrls.wrQLenPdf::56                      0                      
system.mem_ctrls.wrQLenPdf::57                      0                      
system.mem_ctrls.wrQLenPdf::58                      0                      
system.mem_ctrls.wrQLenPdf::59                      0                      
system.mem_ctrls.wrQLenPdf::60                      0                      
system.mem_ctrls.wrQLenPdf::61                      0                      
system.mem_ctrls.wrQLenPdf::62                      0                      
system.mem_ctrls.wrQLenPdf::63                      0                      
system.mem_ctrls.bytesPerActivate::samples         7156                      
system.mem_ctrls.bytesPerActivate::mean    299.626607                      
system.mem_ctrls.bytesPerActivate::gmean   198.925286                      
system.mem_ctrls.bytesPerActivate::stdev   281.333598                      
system.mem_ctrls.bytesPerActivate::0-127         1840     25.71%     25.71%
system.mem_ctrls.bytesPerActivate::128-255         2251     31.45%     57.16%
system.mem_ctrls.bytesPerActivate::256-383          891     12.45%     69.61%
system.mem_ctrls.bytesPerActivate::384-511          708      9.89%     79.51%
system.mem_ctrls.bytesPerActivate::512-639          383      5.35%     84.86%
system.mem_ctrls.bytesPerActivate::640-767          275      3.84%     88.70%
system.mem_ctrls.bytesPerActivate::768-895          218      3.04%     91.75%
system.mem_ctrls.bytesPerActivate::896-1023          165      2.30%     94.06%
system.mem_ctrls.bytesPerActivate::1024-1151          425      5.93%     99.99%
system.mem_ctrls.bytesPerActivate::total         7156                      
system.mem_ctrls.rdPerTurnAround::samples         1042                      
system.mem_ctrls.rdPerTurnAround::mean      15.628598                      
system.mem_ctrls.rdPerTurnAround::gmean     15.552348                      
system.mem_ctrls.rdPerTurnAround::stdev      1.598290                      
system.mem_ctrls.rdPerTurnAround::12-13            67      6.42%      6.42%
system.mem_ctrls.rdPerTurnAround::14-15           456     43.76%     50.19%
system.mem_ctrls.rdPerTurnAround::16-17           404     38.77%     88.96%
system.mem_ctrls.rdPerTurnAround::18-19           102      9.78%     98.75%
system.mem_ctrls.rdPerTurnAround::20-21            12      1.15%     99.90%
system.mem_ctrls.rdPerTurnAround::34-35             1      0.09%     99.99%
system.mem_ctrls.rdPerTurnAround::total          1042                      
system.mem_ctrls.wrPerTurnAround::samples         1042                      
system.mem_ctrls.wrPerTurnAround::mean      16.534548                      
system.mem_ctrls.wrPerTurnAround::gmean     16.502414                      
system.mem_ctrls.wrPerTurnAround::stdev      1.067040                      
system.mem_ctrls.wrPerTurnAround::16              813     78.02%     78.02%
system.mem_ctrls.wrPerTurnAround::17               27      2.59%     80.61%
system.mem_ctrls.wrPerTurnAround::18               85      8.15%     88.77%
system.mem_ctrls.wrPerTurnAround::19              108     10.36%     99.13%
system.mem_ctrls.wrPerTurnAround::20                9      0.86%     99.99%
system.mem_ctrls.wrPerTurnAround::total          1042                      
system.mem_ctrls.totQLat                       326804                      
system.mem_ctrls.totMemAccLat                  636447                      
system.mem_ctrls.totBusLat                      81485                      
system.mem_ctrls.avgQLat                        20.05                      
system.mem_ctrls.avgBusLat                       5.00                      
system.mem_ctrls.avgMemAccLat                   39.05                      
system.mem_ctrls.avgRdBW                       452.06                      
system.mem_ctrls.avgWrBW                       477.91                      
system.mem_ctrls.avgRdBWSys                    983.15                      
system.mem_ctrls.avgWrBWSys                    983.04                      
system.mem_ctrls.peakBW                      12800.00                      
system.mem_ctrls.busUtil                         7.26                      
system.mem_ctrls.busUtilRead                     3.53                      
system.mem_ctrls.busUtilWrite                    3.73                      
system.mem_ctrls.avgRdQLen                       0.99                      
system.mem_ctrls.avgWrQLen                      25.88                      
system.mem_ctrls.readRowHits                    10930                      
system.mem_ctrls.writeRowHits                   15433                      
system.mem_ctrls.readRowHitRate                 67.06                      
system.mem_ctrls.writeRowHitRate                89.44                      
system.mem_ctrls.avgGap                         32.54                      
system.mem_ctrls.pageHitRate                    78.57                      
system.mem_ctrls_0.actEnergy                 14529900                      
system.mem_ctrls_0.preEnergy                  7859376                      
system.mem_ctrls_0.readEnergy                52401888                      
system.mem_ctrls_0.writeEnergy               39713760                      
system.mem_ctrls_0.refreshEnergy            176401680                      
system.mem_ctrls_0.actBackEnergy            296051160                      
system.mem_ctrls_0.preBackEnergy              4227840                      
system.mem_ctrls_0.actPowerDownEnergy       629347032                      
system.mem_ctrls_0.prePowerDownEnergy        62217984                      
system.mem_ctrls_0.selfRefreshEnergy         27913680                      
system.mem_ctrls_0.totalEnergy             1310664300                      
system.mem_ctrls_0.averagePower            568.070795                      
system.mem_ctrls_0.totalIdleTime              1646938                      
system.mem_ctrls_0.memoryStateTime::IDLE         2874                      
system.mem_ctrls_0.memoryStateTime::REF         74650                      
system.mem_ctrls_0.memoryStateTime::SREF       104802                      
system.mem_ctrls_0.memoryStateTime::PRE_PDN       162026                      
system.mem_ctrls_0.memoryStateTime::ACT        582721                      
system.mem_ctrls_0.memoryStateTime::ACT_PDN      1380147                      
system.mem_ctrls_1.actEnergy                 36613920                      
system.mem_ctrls_1.preEnergy                 19791408                      
system.mem_ctrls_1.readEnergy               133775040                      
system.mem_ctrls_1.writeEnergy              104182848                      
system.mem_ctrls_1.refreshEnergy            182548080                      
system.mem_ctrls_1.actBackEnergy            279908304                      
system.mem_ctrls_1.preBackEnergy              4226304                      
system.mem_ctrls_1.actPowerDownEnergy       713007984                      
system.mem_ctrls_1.prePowerDownEnergy        38861952                      
system.mem_ctrls_1.selfRefreshEnergy          6424080                      
system.mem_ctrls_1.totalEnergy             1519339920                      
system.mem_ctrls_1.averagePower            658.515408                      
system.mem_ctrls_1.totalIdleTime              1682255                      
system.mem_ctrls_1.memoryStateTime::IDLE         2534                      
system.mem_ctrls_1.memoryStateTime::REF         77244                      
system.mem_ctrls_1.memoryStateTime::SREF        17563                      
system.mem_ctrls_1.memoryStateTime::PRE_PDN       101203                      
system.mem_ctrls_1.memoryStateTime::ACT        545062                      
system.mem_ctrls_1.memoryStateTime::ACT_PDN      1563614                      
system.pwrStateResidencyTicks::UNDEFINED      2307220                      
system.cpu.clk_domain.clock                         1                      
system.cpu.dtb.read_hits                            0                      
system.cpu.dtb.read_misses                          0                      
system.cpu.dtb.read_accesses                        0                      
system.cpu.dtb.write_hits                           0                      
system.cpu.dtb.write_misses                         0                      
system.cpu.dtb.write_accesses                       0                      
system.cpu.dtb.hits                                 0                      
system.cpu.dtb.misses                               0                      
system.cpu.dtb.accesses                             0                      
system.cpu.itb.read_hits                            0                      
system.cpu.itb.read_misses                          0                      
system.cpu.itb.read_accesses                        0                      
system.cpu.itb.write_hits                           0                      
system.cpu.itb.write_misses                         0                      
system.cpu.itb.write_accesses                       0                      
system.cpu.itb.hits                                 0                      
system.cpu.itb.misses                               0                      
system.cpu.itb.accesses                             0                      
system.cpu.workload.numSyscalls                    62                      
system.cpu.pwrStateResidencyTicks::ON         2307220                      
system.cpu.numCycles                          2307220                      
system.cpu.numWorkItemsStarted                      0                      
system.cpu.numWorkItemsCompleted                    0                      
system.cpu.committedInsts                      131335                      
system.cpu.committedOps                        131635                      
system.cpu.num_int_alu_accesses                130910                      
system.cpu.num_fp_alu_accesses                     40                      
system.cpu.num_vec_alu_accesses                     0                      
system.cpu.num_func_calls                        7703                      
system.cpu.num_conditional_control_insts        21038                      
system.cpu.num_int_insts                       130910                      
system.cpu.num_fp_insts                            40                      
system.cpu.num_vec_insts                            0                      
system.cpu.num_int_register_reads              163945                      
system.cpu.num_int_register_writes              86998                      
system.cpu.num_fp_register_reads                   31                      
system.cpu.num_fp_register_writes                  16                      
system.cpu.num_vec_register_reads                   0                      
system.cpu.num_vec_register_writes                  0                      
system.cpu.num_mem_refs                         51852                      
system.cpu.num_load_insts                       31669                      
system.cpu.num_store_insts                      20183                      
system.cpu.num_idle_cycles                         -0                      
system.cpu.num_busy_cycles                    2307220                      
system.cpu.not_idle_fraction                        1                      
system.cpu.idle_fraction                           -0                      
system.cpu.Branches                             28741                      
system.cpu.op_class::No_OpClass                    66      0.05%      0.05%
system.cpu.op_class::IntAlu                     79604     60.44%     60.49%
system.cpu.op_class::IntMult                      164      0.12%     60.61%
system.cpu.op_class::IntDiv                         4      0.00%     60.62%
system.cpu.op_class::FloatAdd                       0      0.00%     60.62%
system.cpu.op_class::FloatCmp                       3      0.00%     60.62%
system.cpu.op_class::FloatCvt                       2      0.00%     60.62%
system.cpu.op_class::FloatMult                      0      0.00%     60.62%
system.cpu.op_class::FloatMultAcc                   0      0.00%     60.62%
system.cpu.op_class::FloatDiv                       0      0.00%     60.62%
system.cpu.op_class::FloatMisc                      2      0.00%     60.62%
system.cpu.op_class::FloatSqrt                      0      0.00%     60.62%
system.cpu.op_class::SimdAdd                        0      0.00%     60.62%
system.cpu.op_class::SimdAddAcc                     0      0.00%     60.62%
system.cpu.op_class::SimdAlu                        0      0.00%     60.62%
system.cpu.op_class::SimdCmp                        0      0.00%     60.62%
system.cpu.op_class::SimdCvt                        0      0.00%     60.62%
system.cpu.op_class::SimdMisc                       0      0.00%     60.62%
system.cpu.op_class::SimdMult                       0      0.00%     60.62%
system.cpu.op_class::SimdMultAcc                    0      0.00%     60.62%
system.cpu.op_class::SimdShift                      0      0.00%     60.62%
system.cpu.op_class::SimdShiftAcc                   0      0.00%     60.62%
system.cpu.op_class::SimdSqrt                       0      0.00%     60.62%
system.cpu.op_class::SimdFloatAdd                   0      0.00%     60.62%
system.cpu.op_class::SimdFloatAlu                   0      0.00%     60.62%
system.cpu.op_class::SimdFloatCmp                   0      0.00%     60.62%
system.cpu.op_class::SimdFloatCvt                   0      0.00%     60.62%
system.cpu.op_class::SimdFloatDiv                   0      0.00%     60.62%
system.cpu.op_class::SimdFloatMisc                  0      0.00%     60.62%
system.cpu.op_class::SimdFloatMult                  0      0.00%     60.62%
system.cpu.op_class::SimdFloatMultAcc               0      0.00%     60.62%
system.cpu.op_class::SimdFloatSqrt                  0      0.00%     60.62%
system.cpu.op_class::MemRead                    31655     24.03%     84.66%
system.cpu.op_class::MemWrite                   20164     15.31%     99.97%
system.cpu.op_class::FloatMemRead                  14      0.01%     99.98%
system.cpu.op_class::FloatMemWrite                 19      0.01%     99.99%
system.cpu.op_class::IprAccess                      0      0.00%     99.99%
system.cpu.op_class::InstPrefetch                   0      0.00%     99.99%
system.cpu.op_class::total                     131697                      
system.ruby.clk_domain.clock                        1                      
system.ruby.pwrStateResidencyTicks::UNDEFINED      2307220                      
system.ruby.delayHist::bucket_size                  1                      
system.ruby.delayHist::max_bucket                   9                      
system.ruby.delayHist::samples                  70882                      
system.ruby.delayHist                    |       70882    100.00%    100.00% |           0      0.00%    100.00% |           0      0.00%    100.00% |           0      0.00%    100.00% |           0      0.00%    100.00% |           0      0.00%    100.00% |           0      0.00%    100.00% |           0      0.00%    100.00% |           0      0.00%    100.00% |           0      0.00%    100.00%
system.ruby.delayHist::total                    70882                      
system.ruby.outstanding_req_hist_seqr::bucket_size            1                      
system.ruby.outstanding_req_hist_seqr::max_bucket            9                      
system.ruby.outstanding_req_hist_seqr::samples       204544                      
system.ruby.outstanding_req_hist_seqr::mean            1                      
system.ruby.outstanding_req_hist_seqr::gmean            1                      
system.ruby.outstanding_req_hist_seqr    |           0      0.00%      0.00% |      204544    100.00%    100.00% |           0      0.00%    100.00% |           0      0.00%    100.00% |           0      0.00%    100.00% |           0      0.00%    100.00% |           0      0.00%    100.00% |           0      0.00%    100.00% |           0      0.00%    100.00% |           0      0.00%    100.00%
system.ruby.outstanding_req_hist_seqr::total       204544                      
system.ruby.latency_hist_seqr::bucket_size           64                      
system.ruby.latency_hist_seqr::max_bucket          639                      
system.ruby.latency_hist_seqr::samples         204543                      
system.ruby.latency_hist_seqr::mean         10.279877                      
system.ruby.latency_hist_seqr::gmean         1.954932                      
system.ruby.latency_hist_seqr::stdev        25.091929                      
system.ruby.latency_hist_seqr            |      188718     92.26%     92.26% |       14806      7.23%     99.50% |         686      0.33%     99.83% |         104      0.05%     99.88% |         115      0.05%     99.94% |          98      0.04%     99.99% |           4      0.00%     99.99% |           4      0.00%     99.99% |           0      0.00%     99.99% |           8      0.00%     99.99%
system.ruby.latency_hist_seqr::total           204543                      
system.ruby.hit_latency_hist_seqr::bucket_size            1                      
system.ruby.hit_latency_hist_seqr::max_bucket            9                      
system.ruby.hit_latency_hist_seqr::samples       169100                      
system.ruby.hit_latency_hist_seqr::mean             1                      
system.ruby.hit_latency_hist_seqr::gmean            1                      
system.ruby.hit_latency_hist_seqr        |           0      0.00%      0.00% |      169100    100.00%    100.00% |           0      0.00%    100.00% |           0      0.00%    100.00% |           0      0.00%    100.00% |           0      0.00%    100.00% |           0      0.00%    100.00% |           0      0.00%    100.00% |           0      0.00%    100.00% |           0      0.00%    100.00%
system.ruby.hit_latency_hist_seqr::total       169100                      
system.ruby.miss_latency_hist_seqr::bucket_size           64                      
system.ruby.miss_latency_hist_seqr::max_bucket          639                      
system.ruby.miss_latency_hist_seqr::samples        35443                      
system.ruby.miss_latency_hist_seqr::mean    54.554552                      
system.ruby.miss_latency_hist_seqr::gmean    47.877753                      
system.ruby.miss_latency_hist_seqr::stdev    35.530033                      
system.ruby.miss_latency_hist_seqr       |       19618     55.35%     55.35% |       14806     41.77%     97.12% |         686      1.93%     99.06% |         104      0.29%     99.35% |         115      0.32%     99.67% |          98      0.27%     99.95% |           4      0.01%     99.96% |           4      0.01%     99.97% |           0      0.00%     99.97% |           8      0.02%     99.99%
system.ruby.miss_latency_hist_seqr::total        35443                      
system.ruby.Directory.incomplete_times_seqr        35442                      
system.ruby.dir_cntrl0.forwardFromDir.avg_buf_msgs     0.015360                      
system.ruby.dir_cntrl0.forwardFromDir.avg_stall_time     0.999837                      
system.ruby.dir_cntrl0.requestToDir.avg_buf_msgs     0.030721                      
system.ruby.dir_cntrl0.requestToDir.avg_stall_time    11.753578                      
system.ruby.dir_cntrl0.responseFromDir.avg_buf_msgs     0.015361                      
system.ruby.dir_cntrl0.responseFromDir.avg_stall_time     0.999970                      
system.ruby.dir_cntrl0.responseFromMemory.avg_buf_msgs     0.030721                      
system.ruby.dir_cntrl0.responseFromMemory.avg_stall_time     0.999970                      
system.ruby.dir_cntrl0.pwrStateResidencyTicks::UNDEFINED      2307220                      
system.ruby.l1_cntrl0.cacheMemory.demand_hits       169100                      
system.ruby.l1_cntrl0.cacheMemory.demand_misses        35443                      
system.ruby.l1_cntrl0.cacheMemory.demand_accesses       204543                      
system.ruby.l1_cntrl0.forwardToCache.avg_buf_msgs     0.015360                      
system.ruby.l1_cntrl0.forwardToCache.avg_stall_time     6.998841                      
system.ruby.l1_cntrl0.mandatoryQueue.avg_buf_msgs     0.088653                      
system.ruby.l1_cntrl0.mandatoryQueue.avg_stall_time     0.999999                      
system.ruby.l1_cntrl0.requestFromCache.avg_buf_msgs     0.061443                      
system.ruby.l1_cntrl0.requestFromCache.avg_stall_time     1.999997                      
system.ruby.l1_cntrl0.responseToCache.avg_buf_msgs     0.015361                      
system.ruby.l1_cntrl0.responseToCache.avg_stall_time     6.999772                      
system.ruby.l1_cntrl0.sequencer.pwrStateResidencyTicks::UNDEFINED      2307220                      
system.ruby.l1_cntrl0.pwrStateResidencyTicks::UNDEFINED      2307220                      
system.ruby.memctrl_clk_domain.clock                3                      
system.ruby.network.routers0.port_buffers03.avg_buf_msgs     0.015360                      
system.ruby.network.routers0.port_buffers03.avg_stall_time     5.999009                      
system.ruby.network.routers0.port_buffers04.avg_buf_msgs     0.015361                      
system.ruby.network.routers0.port_buffers04.avg_stall_time     5.999807                      
system.ruby.network.routers0.port_buffers07.avg_buf_msgs     0.092161                      
system.ruby.network.routers0.port_buffers07.avg_stall_time     6.753613                      
system.ruby.network.routers0.pwrStateResidencyTicks::UNDEFINED      2307220                      
system.ruby.network.routers0.percent_links_utilized     7.680455                      
system.ruby.network.routers0.msg_count.Control::2        35443                      
system.ruby.network.routers0.msg_count.Data::2        35439                      
system.ruby.network.routers0.msg_count.Response_Data::4        35443                      
system.ruby.network.routers0.msg_count.Writeback_Control::3        35439                      
system.ruby.network.routers0.msg_bytes.Control::2       283544                      
system.ruby.network.routers0.msg_bytes.Data::2      2551608                      
system.ruby.network.routers0.msg_bytes.Response_Data::4      2551896                      
system.ruby.network.routers0.msg_bytes.Writeback_Control::3       283512                      
system.ruby.network.routers1.port_buffers02.avg_buf_msgs     0.030721                      
system.ruby.network.routers1.port_buffers02.avg_stall_time    10.753587                      
system.ruby.network.routers1.port_buffers06.avg_buf_msgs     0.015360                      
system.ruby.network.routers1.port_buffers06.avg_stall_time     1.999673                      
system.ruby.network.routers1.port_buffers07.avg_buf_msgs     0.015361                      
system.ruby.network.routers1.port_buffers07.avg_stall_time     1.999939                      
system.ruby.network.routers1.pwrStateResidencyTicks::UNDEFINED      2307220                      
system.ruby.network.routers1.percent_links_utilized     7.680455                      
system.ruby.network.routers1.msg_count.Control::2        35443                      
system.ruby.network.routers1.msg_count.Data::2        35439                      
system.ruby.network.routers1.msg_count.Response_Data::4        35443                      
system.ruby.network.routers1.msg_count.Writeback_Control::3        35439                      
system.ruby.network.routers1.msg_bytes.Control::2       283544                      
system.ruby.network.routers1.msg_bytes.Data::2      2551608                      
system.ruby.network.routers1.msg_bytes.Response_Data::4      2551896                      
system.ruby.network.routers1.msg_bytes.Writeback_Control::3       283512                      
system.ruby.network.int_link_buffers02.avg_buf_msgs     0.030721                      
system.ruby.network.int_link_buffers02.avg_stall_time     7.753608                      
system.ruby.network.int_link_buffers08.avg_buf_msgs     0.015360                      
system.ruby.network.int_link_buffers08.avg_stall_time     2.999508                      
system.ruby.network.int_link_buffers09.avg_buf_msgs     0.015361                      
system.ruby.network.int_link_buffers09.avg_stall_time     2.999907                      
system.ruby.network.int_link_buffers13.avg_buf_msgs     0.015360                      
system.ruby.network.int_link_buffers13.avg_stall_time     4.999176                      
system.ruby.network.int_link_buffers14.avg_buf_msgs     0.015361                      
system.ruby.network.int_link_buffers14.avg_stall_time     4.999841                      
system.ruby.network.int_link_buffers17.avg_buf_msgs     0.030721                      
system.ruby.network.int_link_buffers17.avg_stall_time     9.753595                      
system.ruby.network.routers2.port_buffers03.avg_buf_msgs     0.015360                      
system.ruby.network.routers2.port_buffers03.avg_stall_time     3.999342                      
system.ruby.network.routers2.port_buffers04.avg_buf_msgs     0.015361                      
system.ruby.network.routers2.port_buffers04.avg_stall_time     3.999875                      
system.ruby.network.routers2.port_buffers07.avg_buf_msgs     0.030721                      
system.ruby.network.routers2.port_buffers07.avg_stall_time     8.753602                      
system.ruby.network.routers2.pwrStateResidencyTicks::UNDEFINED      2307220                      
system.ruby.network.routers2.percent_links_utilized     7.680455                      
system.ruby.network.routers2.msg_count.Control::2        35443                      
system.ruby.network.routers2.msg_count.Data::2        35439                      
system.ruby.network.routers2.msg_count.Response_Data::4        35443                      
system.ruby.network.routers2.msg_count.Writeback_Control::3        35439                      
system.ruby.network.routers2.msg_bytes.Control::2       283544                      
system.ruby.network.routers2.msg_bytes.Data::2      2551608                      
system.ruby.network.routers2.msg_bytes.Response_Data::4      2551896                      
system.ruby.network.routers2.msg_bytes.Writeback_Control::3       283512                      
system.ruby.network.pwrStateResidencyTicks::UNDEFINED      2307220                      
system.ruby.network.msg_count.Control          106329                      
system.ruby.network.msg_count.Data             106317                      
system.ruby.network.msg_count.Response_Data       106329                      
system.ruby.network.msg_count.Writeback_Control       106317                      
system.ruby.network.msg_byte.Control           850632                      
system.ruby.network.msg_byte.Data             7654824                      
system.ruby.network.msg_byte.Response_Data      7655688                      
system.ruby.network.msg_byte.Writeback_Control       850536                      
system.sys_port_proxy.pwrStateResidencyTicks::UNDEFINED      2307220                      
system.ruby.network.routers0.throttle0.link_utilization     7.680802                      
system.ruby.network.routers0.throttle0.msg_count.Response_Data::4        35443                      
system.ruby.network.routers0.throttle0.msg_count.Writeback_Control::3        35439                      
system.ruby.network.routers0.throttle0.msg_bytes.Response_Data::4      2551896                      
system.ruby.network.routers0.throttle0.msg_bytes.Writeback_Control::3       283512                      
system.ruby.network.routers0.throttle1.link_utilization     7.680108                      
system.ruby.network.routers0.throttle1.msg_count.Control::2        35443                      
system.ruby.network.routers0.throttle1.msg_count.Data::2        35439                      
system.ruby.network.routers0.throttle1.msg_bytes.Control::2       283544                      
system.ruby.network.routers0.throttle1.msg_bytes.Data::2      2551608                      
system.ruby.network.routers1.throttle0.link_utilization     7.680108                      
system.ruby.network.routers1.throttle0.msg_count.Control::2        35443                      
system.ruby.network.routers1.throttle0.msg_count.Data::2        35439                      
system.ruby.network.routers1.throttle0.msg_bytes.Control::2       283544                      
system.ruby.network.routers1.throttle0.msg_bytes.Data::2      2551608                      
system.ruby.network.routers1.throttle1.link_utilization     7.680802                      
system.ruby.network.routers1.throttle1.msg_count.Response_Data::4        35443                      
system.ruby.network.routers1.throttle1.msg_count.Writeback_Control::3        35439                      
system.ruby.network.routers1.throttle1.msg_bytes.Response_Data::4      2551896                      
system.ruby.network.routers1.throttle1.msg_bytes.Writeback_Control::3       283512                      
system.ruby.network.routers2.throttle0.link_utilization     7.680802                      
system.ruby.network.routers2.throttle0.msg_count.Response_Data::4        35443                      
system.ruby.network.routers2.throttle0.msg_count.Writeback_Control::3        35439                      
system.ruby.network.routers2.throttle0.msg_bytes.Response_Data::4      2551896                      
system.ruby.network.routers2.throttle0.msg_bytes.Writeback_Control::3       283512                      
system.ruby.network.routers2.throttle1.link_utilization     7.680108                      
system.ruby.network.routers2.throttle1.msg_count.Control::2        35443                      
system.ruby.network.routers2.throttle1.msg_count.Data::2        35439                      
system.ruby.network.routers2.throttle1.msg_bytes.Control::2       283544                      
system.ruby.network.routers2.throttle1.msg_bytes.Data::2      2551608                      
system.ruby.delayVCHist.vnet_1::bucket_size            1                      
system.ruby.delayVCHist.vnet_1::max_bucket            9                      
system.ruby.delayVCHist.vnet_1::samples         35443                      
system.ruby.delayVCHist.vnet_1           |       35443    100.00%    100.00% |           0      0.00%    100.00% |           0      0.00%    100.00% |           0      0.00%    100.00% |           0      0.00%    100.00% |           0      0.00%    100.00% |           0      0.00%    100.00% |           0      0.00%    100.00% |           0      0.00%    100.00% |           0      0.00%    100.00%
system.ruby.delayVCHist.vnet_1::total           35443                      
system.ruby.delayVCHist.vnet_2::bucket_size            1                      
system.ruby.delayVCHist.vnet_2::max_bucket            9                      
system.ruby.delayVCHist.vnet_2::samples         35439                      
system.ruby.delayVCHist.vnet_2           |       35439    100.00%    100.00% |           0      0.00%    100.00% |           0      0.00%    100.00% |           0      0.00%    100.00% |           0      0.00%    100.00% |           0      0.00%    100.00% |           0      0.00%    100.00% |           0      0.00%    100.00% |           0      0.00%    100.00% |           0      0.00%    100.00%
system.ruby.delayVCHist.vnet_2::total           35439                      
system.ruby.LD.latency_hist_seqr::bucket_size           64                      
system.ruby.LD.latency_hist_seqr::max_bucket          639                      
system.ruby.LD.latency_hist_seqr::samples        31335                      
system.ruby.LD.latency_hist_seqr::mean      27.867560                      
system.ruby.LD.latency_hist_seqr::gmean      7.263583                      
system.ruby.LD.latency_hist_seqr::stdev     35.918672                      
system.ruby.LD.latency_hist_seqr         |       24533     78.29%     78.29% |        6387     20.38%     98.67% |         276      0.88%     99.55% |          39      0.12%     99.68% |          49      0.15%     99.83% |          44      0.14%     99.97% |           3      0.00%     99.98% |           3      0.00%     99.99% |           0      0.00%     99.99% |           1      0.00%     99.99%
system.ruby.LD.latency_hist_seqr::total         31335                      
system.ruby.LD.hit_latency_hist_seqr::bucket_size            1                      
system.ruby.LD.hit_latency_hist_seqr::max_bucket            9                      
system.ruby.LD.hit_latency_hist_seqr::samples        15170                      
system.ruby.LD.hit_latency_hist_seqr::mean            1                      
system.ruby.LD.hit_latency_hist_seqr::gmean            1                      
system.ruby.LD.hit_latency_hist_seqr     |           0      0.00%      0.00% |       15170    100.00%    100.00% |           0      0.00%    100.00% |           0      0.00%    100.00% |           0      0.00%    100.00% |           0      0.00%    100.00% |           0      0.00%    100.00% |           0      0.00%    100.00% |           0      0.00%    100.00% |           0      0.00%    100.00%
system.ruby.LD.hit_latency_hist_seqr::total        15170                      
system.ruby.LD.miss_latency_hist_seqr::bucket_size           64                      
system.ruby.LD.miss_latency_hist_seqr::max_bucket          639                      
system.ruby.LD.miss_latency_hist_seqr::samples        16165                      
system.ruby.LD.miss_latency_hist_seqr::mean    53.081348                      
system.ruby.LD.miss_latency_hist_seqr::gmean    46.697722                      
system.ruby.LD.miss_latency_hist_seqr::stdev    34.463245                      
system.ruby.LD.miss_latency_hist_seqr    |        9363     57.92%     57.92% |        6387     39.51%     97.43% |         276      1.70%     99.14% |          39      0.24%     99.38% |          49      0.30%     99.68% |          44      0.27%     99.95% |           3      0.01%     99.97% |           3      0.01%     99.99% |           0      0.00%     99.99% |           1      0.00%     99.99%
system.ruby.LD.miss_latency_hist_seqr::total        16165                      
system.ruby.ST.latency_hist_seqr::bucket_size           64                      
system.ruby.ST.latency_hist_seqr::max_bucket          639                      
system.ruby.ST.latency_hist_seqr::samples        19849                      
system.ruby.ST.latency_hist_seqr::mean      15.275983                      
system.ruby.ST.latency_hist_seqr::gmean      3.204957                      
system.ruby.ST.latency_hist_seqr::stdev     28.196602                      
system.ruby.ST.latency_hist_seqr         |       18216     91.77%     91.77% |        1479      7.45%     99.22% |         115      0.57%     99.80% |          12      0.06%     99.86% |          12      0.06%     99.92% |          11      0.05%     99.97% |           0      0.00%     99.97% |           0      0.00%     99.97% |           0      0.00%     99.97% |           4      0.02%     99.99%
system.ruby.ST.latency_hist_seqr::total         19849                      
system.ruby.ST.hit_latency_hist_seqr::bucket_size            1                      
system.ruby.ST.hit_latency_hist_seqr::max_bucket            9                      
system.ruby.ST.hit_latency_hist_seqr::samples        13626                      
system.ruby.ST.hit_latency_hist_seqr::mean            1                      
system.ruby.ST.hit_latency_hist_seqr::gmean            1                      
system.ruby.ST.hit_latency_hist_seqr     |           0      0.00%      0.00% |       13626    100.00%    100.00% |           0      0.00%    100.00% |           0      0.00%    100.00% |           0      0.00%    100.00% |           0      0.00%    100.00% |           0      0.00%    100.00% |           0      0.00%    100.00% |           0      0.00%    100.00% |           0      0.00%    100.00%
system.ruby.ST.hit_latency_hist_seqr::total        13626                      
system.ruby.ST.miss_latency_hist_seqr::bucket_size           64                      
system.ruby.ST.miss_latency_hist_seqr::max_bucket          639                      
system.ruby.ST.miss_latency_hist_seqr::samples         6223                      
system.ruby.ST.miss_latency_hist_seqr::mean    46.534950                      
system.ruby.ST.miss_latency_hist_seqr::gmean    41.056356                      
system.ruby.ST.miss_latency_hist_seqr::stdev    33.355314                      
system.ruby.ST.miss_latency_hist_seqr    |        4590     73.75%     73.75% |        1479     23.76%     97.52% |         115      1.84%     99.37% |          12      0.19%     99.56% |          12      0.19%     99.75% |          11      0.17%     99.93% |           0      0.00%     99.93% |           0      0.00%     99.93% |           0      0.00%     99.93% |           4      0.06%     99.99%
system.ruby.ST.miss_latency_hist_seqr::total         6223                      
system.ruby.IFETCH.latency_hist_seqr::bucket_size           64                      
system.ruby.IFETCH.latency_hist_seqr::max_bucket          639                      
system.ruby.IFETCH.latency_hist_seqr::samples       152691                      
system.ruby.IFETCH.latency_hist_seqr::mean     6.060010                      
system.ruby.IFETCH.latency_hist_seqr::gmean     1.404338                      
system.ruby.IFETCH.latency_hist_seqr::stdev    19.756334                      
system.ruby.IFETCH.latency_hist_seqr     |      145304     95.16%     95.16% |        6937      4.54%     99.70% |         295      0.19%     99.89% |          53      0.03%     99.93% |          54      0.03%     99.96% |          43      0.02%     99.99% |           1      0.00%     99.99% |           1      0.00%     99.99% |           0      0.00%     99.99% |           3      0.00%     99.99%
system.ruby.IFETCH.latency_hist_seqr::total       152691                      
system.ruby.IFETCH.hit_latency_hist_seqr::bucket_size            1                      
system.ruby.IFETCH.hit_latency_hist_seqr::max_bucket            9                      
system.ruby.IFETCH.hit_latency_hist_seqr::samples       139640                      
system.ruby.IFETCH.hit_latency_hist_seqr::mean            1                      
system.ruby.IFETCH.hit_latency_hist_seqr::gmean            1                      
system.ruby.IFETCH.hit_latency_hist_seqr |           0      0.00%      0.00% |      139640    100.00%    100.00% |           0      0.00%    100.00% |           0      0.00%    100.00% |           0      0.00%    100.00% |           0      0.00%    100.00% |           0      0.00%    100.00% |           0      0.00%    100.00% |           0      0.00%    100.00% |           0      0.00%    100.00%
system.ruby.IFETCH.hit_latency_hist_seqr::total       139640                      
system.ruby.IFETCH.miss_latency_hist_seqr::bucket_size           64                      
system.ruby.IFETCH.miss_latency_hist_seqr::max_bucket          639                      
system.ruby.IFETCH.miss_latency_hist_seqr::samples        13051                      
system.ruby.IFETCH.miss_latency_hist_seqr::mean    60.199908                      
system.ruby.IFETCH.miss_latency_hist_seqr::gmean    53.131796                      
system.ruby.IFETCH.miss_latency_hist_seqr::stdev    36.898325                      
system.ruby.IFETCH.miss_latency_hist_seqr |        5664     43.39%     43.39% |        6937     53.15%     96.55% |         295      2.26%     98.81% |          53      0.40%     99.21% |          54      0.41%     99.63% |          43      0.32%     99.96% |           1      0.00%     99.96% |           1      0.00%     99.97% |           0      0.00%     99.97% |           3      0.02%     99.99%
system.ruby.IFETCH.miss_latency_hist_seqr::total        13051                      
system.ruby.Load_Linked.latency_hist_seqr::bucket_size           16                      
system.ruby.Load_Linked.latency_hist_seqr::max_bucket          159                      
system.ruby.Load_Linked.latency_hist_seqr::samples          334                      
system.ruby.Load_Linked.latency_hist_seqr::mean     1.769461                      
system.ruby.Load_Linked.latency_hist_seqr::gmean     1.050513                      
system.ruby.Load_Linked.latency_hist_seqr::stdev     7.335636                      
system.ruby.Load_Linked.latency_hist_seqr |         330     98.80%     98.80% |           0      0.00%     98.80% |           1      0.29%     99.10% |           0      0.00%     99.10% |           1      0.29%     99.40% |           2      0.59%     99.99% |           0      0.00%     99.99% |           0      0.00%     99.99% |           0      0.00%     99.99% |           0      0.00%     99.99%
system.ruby.Load_Linked.latency_hist_seqr::total          334                      
system.ruby.Load_Linked.hit_latency_hist_seqr::bucket_size            1                      
system.ruby.Load_Linked.hit_latency_hist_seqr::max_bucket            9                      
system.ruby.Load_Linked.hit_latency_hist_seqr::samples          330                      
system.ruby.Load_Linked.hit_latency_hist_seqr::mean            1                      
system.ruby.Load_Linked.hit_latency_hist_seqr::gmean            1                      
system.ruby.Load_Linked.hit_latency_hist_seqr |           0      0.00%      0.00% |         330    100.00%    100.00% |           0      0.00%    100.00% |           0      0.00%    100.00% |           0      0.00%    100.00% |           0      0.00%    100.00% |           0      0.00%    100.00% |           0      0.00%    100.00% |           0      0.00%    100.00% |           0      0.00%    100.00%
system.ruby.Load_Linked.hit_latency_hist_seqr::total          330                      
system.ruby.Load_Linked.miss_latency_hist_seqr::bucket_size           16                      
system.ruby.Load_Linked.miss_latency_hist_seqr::max_bucket          159                      
system.ruby.Load_Linked.miss_latency_hist_seqr::samples            4                      
system.ruby.Load_Linked.miss_latency_hist_seqr::mean    65.250000                      
system.ruby.Load_Linked.miss_latency_hist_seqr::gmean    61.241906                      
system.ruby.Load_Linked.miss_latency_hist_seqr::stdev    23.128265                      
system.ruby.Load_Linked.miss_latency_hist_seqr |           0      0.00%      0.00% |           0      0.00%      0.00% |           1     25.00%     25.00% |           0      0.00%     25.00% |           1     25.00%     50.00% |           2     50.00%    100.00% |           0      0.00%    100.00% |           0      0.00%    100.00% |           0      0.00%    100.00% |           0      0.00%    100.00%
system.ruby.Load_Linked.miss_latency_hist_seqr::total            4                      
system.ruby.Store_Conditional.latency_hist_seqr::bucket_size            1                      
system.ruby.Store_Conditional.latency_hist_seqr::max_bucket            9                      
system.ruby.Store_Conditional.latency_hist_seqr::samples          334                      
system.ruby.Store_Conditional.latency_hist_seqr::mean            1                      
system.ruby.Store_Conditional.latency_hist_seqr::gmean            1                      
system.ruby.Store_Conditional.latency_hist_seqr |           0      0.00%      0.00% |         334    100.00%    100.00% |           0      0.00%    100.00% |           0      0.00%    100.00% |           0      0.00%    100.00% |           0      0.00%    100.00% |           0      0.00%    100.00% |           0      0.00%    100.00% |           0      0.00%    100.00% |           0      0.00%    100.00%
system.ruby.Store_Conditional.latency_hist_seqr::total          334                      
system.ruby.Store_Conditional.hit_latency_hist_seqr::bucket_size            1                      
system.ruby.Store_Conditional.hit_latency_hist_seqr::max_bucket            9                      
system.ruby.Store_Conditional.hit_latency_hist_seqr::samples          334                      
system.ruby.Store_Conditional.hit_latency_hist_seqr::mean            1                      
system.ruby.Store_Conditional.hit_latency_hist_seqr::gmean            1                      
system.ruby.Store_Conditional.hit_latency_hist_seqr |           0      0.00%      0.00% |         334    100.00%    100.00% |           0      0.00%    100.00% |           0      0.00%    100.00% |           0      0.00%    100.00% |           0      0.00%    100.00% |           0      0.00%    100.00% |           0      0.00%    100.00% |           0      0.00%    100.00% |           0      0.00%    100.00%
system.ruby.Store_Conditional.hit_latency_hist_seqr::total          334                      
system.ruby.Directory.miss_mach_latency_hist_seqr::bucket_size           64                      
system.ruby.Directory.miss_mach_latency_hist_seqr::max_bucket          639                      
system.ruby.Directory.miss_mach_latency_hist_seqr::samples        35443                      
system.ruby.Directory.miss_mach_latency_hist_seqr::mean    54.554552                      
system.ruby.Directory.miss_mach_latency_hist_seqr::gmean    47.877753                      
system.ruby.Directory.miss_mach_latency_hist_seqr::stdev    35.530033                      
system.ruby.Directory.miss_mach_latency_hist_seqr |       19618     55.35%     55.35% |       14806     41.77%     97.12% |         686      1.93%     99.06% |         104      0.29%     99.35% |         115      0.32%     99.67% |          98      0.27%     99.95% |           4      0.01%     99.96% |           4      0.01%     99.97% |           0      0.00%     99.97% |           8      0.02%     99.99%
system.ruby.Directory.miss_mach_latency_hist_seqr::total        35443                      
system.ruby.Directory.miss_latency_hist_seqr.issue_to_initial_request::bucket_size            1                      
system.ruby.Directory.miss_latency_hist_seqr.issue_to_initial_request::max_bucket            9                      
system.ruby.Directory.miss_latency_hist_seqr.issue_to_initial_request::samples            1                      
system.ruby.Directory.miss_latency_hist_seqr.issue_to_initial_request::stdev          nan                      
system.ruby.Directory.miss_latency_hist_seqr.issue_to_initial_request |           1    100.00%    100.00% |           0      0.00%    100.00% |           0      0.00%    100.00% |           0      0.00%    100.00% |           0      0.00%    100.00% |           0      0.00%    100.00% |           0      0.00%    100.00% |           0      0.00%    100.00% |           0      0.00%    100.00% |           0      0.00%    100.00%
system.ruby.Directory.miss_latency_hist_seqr.issue_to_initial_request::total            1                      
system.ruby.Directory.miss_latency_hist_seqr.initial_to_forward::bucket_size            1                      
system.ruby.Directory.miss_latency_hist_seqr.initial_to_forward::max_bucket            9                      
system.ruby.Directory.miss_latency_hist_seqr.initial_to_forward::samples            1                      
system.ruby.Directory.miss_latency_hist_seqr.initial_to_forward::stdev          nan                      
system.ruby.Directory.miss_latency_hist_seqr.initial_to_forward |           1    100.00%    100.00% |           0      0.00%    100.00% |           0      0.00%    100.00% |           0      0.00%    100.00% |           0      0.00%    100.00% |           0      0.00%    100.00% |           0      0.00%    100.00% |           0      0.00%    100.00% |           0      0.00%    100.00% |           0      0.00%    100.00%
system.ruby.Directory.miss_latency_hist_seqr.initial_to_forward::total            1                      
system.ruby.Directory.miss_latency_hist_seqr.forward_to_first_response::bucket_size            1                      
system.ruby.Directory.miss_latency_hist_seqr.forward_to_first_response::max_bucket            9                      
system.ruby.Directory.miss_latency_hist_seqr.forward_to_first_response::samples            1                      
system.ruby.Directory.miss_latency_hist_seqr.forward_to_first_response::stdev          nan                      
system.ruby.Directory.miss_latency_hist_seqr.forward_to_first_response |           1    100.00%    100.00% |           0      0.00%    100.00% |           0      0.00%    100.00% |           0      0.00%    100.00% |           0      0.00%    100.00% |           0      0.00%    100.00% |           0      0.00%    100.00% |           0      0.00%    100.00% |           0      0.00%    100.00% |           0      0.00%    100.00%
system.ruby.Directory.miss_latency_hist_seqr.forward_to_first_response::total            1                      
system.ruby.Directory.miss_latency_hist_seqr.first_response_to_completion::bucket_size            8                      
system.ruby.Directory.miss_latency_hist_seqr.first_response_to_completion::max_bucket           79                      
system.ruby.Directory.miss_latency_hist_seqr.first_response_to_completion::samples            1                      
system.ruby.Directory.miss_latency_hist_seqr.first_response_to_completion::mean           75                      
system.ruby.Directory.miss_latency_hist_seqr.first_response_to_completion::gmean    74.999999                      
system.ruby.Directory.miss_latency_hist_seqr.first_response_to_completion::stdev          nan                      
system.ruby.Directory.miss_latency_hist_seqr.first_response_to_completion |           0      0.00%      0.00% |           0      0.00%      0.00% |           0      0.00%      0.00% |           0      0.00%      0.00% |           0      0.00%      0.00% |           0      0.00%      0.00% |           0      0.00%      0.00% |           0      0.00%      0.00% |           0      0.00%      0.00% |           1    100.00%    100.00%
system.ruby.Directory.miss_latency_hist_seqr.first_response_to_completion::total            1                      
system.ruby.LD.Directory.miss_type_mach_latency_hist_seqr::bucket_size           64                      
system.ruby.LD.Directory.miss_type_mach_latency_hist_seqr::max_bucket          639                      
system.ruby.LD.Directory.miss_type_mach_latency_hist_seqr::samples        16165                      
system.ruby.LD.Directory.miss_type_mach_latency_hist_seqr::mean    53.081348                      
system.ruby.LD.Directory.miss_type_mach_latency_hist_seqr::gmean    46.697722                      
system.ruby.LD.Directory.miss_type_mach_latency_hist_seqr::stdev    34.463245                      
system.ruby.LD.Directory.miss_type_mach_latency_hist_seqr |        9363     57.92%     57.92% |        6387     39.51%     97.43% |         276      1.70%     99.14% |          39      0.24%     99.38% |          49      0.30%     99.68% |          44      0.27%     99.95% |           3      0.01%     99.97% |           3      0.01%     99.99% |           0      0.00%     99.99% |           1      0.00%     99.99%
system.ruby.LD.Directory.miss_type_mach_latency_hist_seqr::total        16165                      
system.ruby.ST.Directory.miss_type_mach_latency_hist_seqr::bucket_size           64                      
system.ruby.ST.Directory.miss_type_mach_latency_hist_seqr::max_bucket          639                      
system.ruby.ST.Directory.miss_type_mach_latency_hist_seqr::samples         6223                      
system.ruby.ST.Directory.miss_type_mach_latency_hist_seqr::mean    46.534950                      
system.ruby.ST.Directory.miss_type_mach_latency_hist_seqr::gmean    41.056356                      
system.ruby.ST.Directory.miss_type_mach_latency_hist_seqr::stdev    33.355314                      
system.ruby.ST.Directory.miss_type_mach_latency_hist_seqr |        4590     73.75%     73.75% |        1479     23.76%     97.52% |         115      1.84%     99.37% |          12      0.19%     99.56% |          12      0.19%     99.75% |          11      0.17%     99.93% |           0      0.00%     99.93% |           0      0.00%     99.93% |           0      0.00%     99.93% |           4      0.06%     99.99%
system.ruby.ST.Directory.miss_type_mach_latency_hist_seqr::total         6223                      
system.ruby.IFETCH.Directory.miss_type_mach_latency_hist_seqr::bucket_size           64                      
system.ruby.IFETCH.Directory.miss_type_mach_latency_hist_seqr::max_bucket          639                      
system.ruby.IFETCH.Directory.miss_type_mach_latency_hist_seqr::samples        13051                      
system.ruby.IFETCH.Directory.miss_type_mach_latency_hist_seqr::mean    60.199908                      
system.ruby.IFETCH.Directory.miss_type_mach_latency_hist_seqr::gmean    53.131796                      
system.ruby.IFETCH.Directory.miss_type_mach_latency_hist_seqr::stdev    36.898325                      
system.ruby.IFETCH.Directory.miss_type_mach_latency_hist_seqr |        5664     43.39%     43.39% |        6937     53.15%     96.55% |         295      2.26%     98.81% |          53      0.40%     99.21% |          54      0.41%     99.63% |          43      0.32%     99.96% |           1      0.00%     99.96% |           1      0.00%     99.97% |           0      0.00%     99.97% |           3      0.02%     99.99%
system.ruby.IFETCH.Directory.miss_type_mach_latency_hist_seqr::total        13051                      
system.ruby.Load_Linked.Directory.miss_type_mach_latency_hist_seqr::bucket_size           16                      
system.ruby.Load_Linked.Directory.miss_type_mach_latency_hist_seqr::max_bucket          159                      
system.ruby.Load_Linked.Directory.miss_type_mach_latency_hist_seqr::samples            4                      
system.ruby.Load_Linked.Directory.miss_type_mach_latency_hist_seqr::mean    65.250000                      
system.ruby.Load_Linked.Directory.miss_type_mach_latency_hist_seqr::gmean    61.241906                      
system.ruby.Load_Linked.Directory.miss_type_mach_latency_hist_seqr::stdev    23.128265                      
system.ruby.Load_Linked.Directory.miss_type_mach_latency_hist_seqr |           0      0.00%      0.00% |           0      0.00%      0.00% |           1     25.00%     25.00% |           0      0.00%     25.00% |           1     25.00%     50.00% |           2     50.00%    100.00% |           0      0.00%    100.00% |           0      0.00%    100.00% |           0      0.00%    100.00% |           0      0.00%    100.00%
system.ruby.Load_Linked.Directory.miss_type_mach_latency_hist_seqr::total            4                      
system.ruby.Directory_Controller.GETX           35443      0.00%      0.00%
system.ruby.Directory_Controller.PUTX           35439      0.00%      0.00%
system.ruby.Directory_Controller.Memory_Data        35443      0.00%      0.00%
system.ruby.Directory_Controller.Memory_Ack        35439      0.00%      0.00%
system.ruby.Directory_Controller.I.GETX         35443      0.00%      0.00%
system.ruby.Directory_Controller.M.PUTX         35439      0.00%      0.00%
system.ruby.Directory_Controller.IM.Memory_Data        35443      0.00%      0.00%
system.ruby.Directory_Controller.MI.Memory_Ack        35439      0.00%      0.00%
system.ruby.L1Cache_Controller.Load             31335      0.00%      0.00%
system.ruby.L1Cache_Controller.Ifetch          152691      0.00%      0.00%
system.ruby.L1Cache_Controller.Store            20517      0.00%      0.00%
system.ruby.L1Cache_Controller.Data             35443      0.00%      0.00%
system.ruby.L1Cache_Controller.Replacement        35439      0.00%      0.00%
system.ruby.L1Cache_Controller.Writeback_Ack        35439      0.00%      0.00%
system.ruby.L1Cache_Controller.I.Load           16165      0.00%      0.00%
system.ruby.L1Cache_Controller.I.Ifetch         13051      0.00%      0.00%
system.ruby.L1Cache_Controller.I.Store           6227      0.00%      0.00%
system.ruby.L1Cache_Controller.M.Load           15170      0.00%      0.00%
system.ruby.L1Cache_Controller.M.Ifetch        139640      0.00%      0.00%
system.ruby.L1Cache_Controller.M.Store          14290      0.00%      0.00%
system.ruby.L1Cache_Controller.M.Replacement        35439      0.00%      0.00%
system.ruby.L1Cache_Controller.MI.Writeback_Ack        35439      0.00%      0.00%
system.ruby.L1Cache_Controller.IS.Data          29216      0.00%      0.00%
system.ruby.L1Cache_Controller.IM.Data           6227      0.00%      0.00%

---------- End Simulation Statistics   ----------
