
---------- Begin Simulation Statistics ----------
sim_seconds                                  0.000117                      
sim_ticks                                   116890500                      
final_tick                                  116890500                      
sim_freq                                 1000000000000                      
host_inst_rate                                 102937                      
host_op_rate                                   103165                      
host_tick_rate                              109907640                      
host_mem_usage                                 408688                      
host_seconds                                     1.06                      
sim_insts                                      109472                      
sim_ops                                        109717                      
system.voltage_domain.voltage                       1                      
system.clk_domain.clock                          1000                      
system.physmem.pwrStateResidencyTicks::UNDEFINED    116890500                      
system.physmem.bytes_read::cpu.inst             52864                      
system.physmem.bytes_read::cpu.data             29952                      
system.physmem.bytes_read::total                82816                      
system.physmem.bytes_inst_read::cpu.inst        52864                      
system.physmem.bytes_inst_read::total           52864                      
system.physmem.num_reads::cpu.inst                826                      
system.physmem.num_reads::cpu.data                468                      
system.physmem.num_reads::total                  1294                      
system.physmem.bw_read::cpu.inst            452252322                      
system.physmem.bw_read::cpu.data            256239814                      
system.physmem.bw_read::total               708492136                      
system.physmem.bw_inst_read::cpu.inst       452252322                      
system.physmem.bw_inst_read::total          452252322                      
system.physmem.bw_total::cpu.inst           452252322                      
system.physmem.bw_total::cpu.data           256239814                      
system.physmem.bw_total::total              708492136                      
system.physmem.readReqs                          1295                      
system.physmem.writeReqs                            0                      
system.physmem.readBursts                        1295                      
system.physmem.writeBursts                          0                      
system.physmem.bytesReadDRAM                    82816                      
system.physmem.bytesReadWrQ                         0                      
system.physmem.bytesWritten                         0                      
system.physmem.bytesReadSys                     82880                      
system.physmem.bytesWrittenSys                      0                      
system.physmem.servicedByWrQ                        0                      
system.physmem.mergedWrBursts                       0                      
system.physmem.neitherReadNorWriteReqs              0                      
system.physmem.perBankRdBursts::0                 146                      
system.physmem.perBankRdBursts::1                  84                      
system.physmem.perBankRdBursts::2                 119                      
system.physmem.perBankRdBursts::3                  71                      
system.physmem.perBankRdBursts::4                  28                      
system.physmem.perBankRdBursts::5                  69                      
system.physmem.perBankRdBursts::6                  27                      
system.physmem.perBankRdBursts::7                  41                      
system.physmem.perBankRdBursts::8                  76                      
system.physmem.perBankRdBursts::9                 116                      
system.physmem.perBankRdBursts::10                174                      
system.physmem.perBankRdBursts::11                147                      
system.physmem.perBankRdBursts::12                 53                      
system.physmem.perBankRdBursts::13                 56                      
system.physmem.perBankRdBursts::14                 47                      
system.physmem.perBankRdBursts::15                 40                      
system.physmem.perBankWrBursts::0                   0                      
system.physmem.perBankWrBursts::1                   0                      
system.physmem.perBankWrBursts::2                   0                      
system.physmem.perBankWrBursts::3                   0                      
system.physmem.perBankWrBursts::4                   0                      
system.physmem.perBankWrBursts::5                   0                      
system.physmem.perBankWrBursts::6                   0                      
system.physmem.perBankWrBursts::7                   0                      
system.physmem.perBankWrBursts::8                   0                      
system.physmem.perBankWrBursts::9                   0                      
system.physmem.perBankWrBursts::10                  0                      
system.physmem.perBankWrBursts::11                  0                      
system.physmem.perBankWrBursts::12                  0                      
system.physmem.perBankWrBursts::13                  0                      
system.physmem.perBankWrBursts::14                  0                      
system.physmem.perBankWrBursts::15                  0                      
system.physmem.numRdRetry                           0                      
system.physmem.numWrRetry                           0                      
system.physmem.totGap                       116803000                      
system.physmem.readPktSize::0                       0                      
system.physmem.readPktSize::1                       0                      
system.physmem.readPktSize::2                       0                      
system.physmem.readPktSize::3                       0                      
system.physmem.readPktSize::4                       0                      
system.physmem.readPktSize::5                       0                      
system.physmem.readPktSize::6                    1295                      
system.physmem.writePktSize::0                      0                      
system.physmem.writePktSize::1                      0                      
system.physmem.writePktSize::2                      0                      
system.physmem.writePktSize::3                      0                      
system.physmem.writePktSize::4                      0                      
system.physmem.writePktSize::5                      0                      
system.physmem.writePktSize::6                      0                      
system.physmem.rdQLenPdf::0                       783                      
system.physmem.rdQLenPdf::1                       337                      
system.physmem.rdQLenPdf::2                       123                      
system.physmem.rdQLenPdf::3                        39                      
system.physmem.rdQLenPdf::4                        10                      
system.physmem.rdQLenPdf::5                         3                      
system.physmem.rdQLenPdf::6                         0                      
system.physmem.rdQLenPdf::7                         0                      
system.physmem.rdQLenPdf::8                         0                      
system.physmem.rdQLenPdf::9                         0                      
system.physmem.rdQLenPdf::10                        0                      
system.physmem.rdQLenPdf::11                        0                      
system.physmem.rdQLenPdf::12                        0                      
system.physmem.rdQLenPdf::13                        0                      
system.physmem.rdQLenPdf::14                        0                      
system.physmem.rdQLenPdf::15                        0                      
system.physmem.rdQLenPdf::16                        0                      
system.physmem.rdQLenPdf::17                        0                      
system.physmem.rdQLenPdf::18                        0                      
system.physmem.rdQLenPdf::19                        0                      
system.physmem.rdQLenPdf::20                        0                      
system.physmem.rdQLenPdf::21                        0                      
system.physmem.rdQLenPdf::22                        0                      
system.physmem.rdQLenPdf::23                        0                      
system.physmem.rdQLenPdf::24                        0                      
system.physmem.rdQLenPdf::25                        0                      
system.physmem.rdQLenPdf::26                        0                      
system.physmem.rdQLenPdf::27                        0                      
system.physmem.rdQLenPdf::28                        0                      
system.physmem.rdQLenPdf::29                        0                      
system.physmem.rdQLenPdf::30                        0                      
system.physmem.rdQLenPdf::31                        0                      
system.physmem.wrQLenPdf::0                         0                      
system.physmem.wrQLenPdf::1                         0                      
system.physmem.wrQLenPdf::2                         0                      
system.physmem.wrQLenPdf::3                         0                      
system.physmem.wrQLenPdf::4                         0                      
system.physmem.wrQLenPdf::5                         0                      
system.physmem.wrQLenPdf::6                         0                      
system.physmem.wrQLenPdf::7                         0                      
system.physmem.wrQLenPdf::8                         0                      
system.physmem.wrQLenPdf::9                         0                      
system.physmem.wrQLenPdf::10                        0                      
system.physmem.wrQLenPdf::11                        0                      
system.physmem.wrQLenPdf::12                        0                      
system.physmem.wrQLenPdf::13                        0                      
system.physmem.wrQLenPdf::14                        0                      
system.physmem.wrQLenPdf::15                        0                      
system.physmem.wrQLenPdf::16                        0                      
system.physmem.wrQLenPdf::17                        0                      
system.physmem.wrQLenPdf::18                        0                      
system.physmem.wrQLenPdf::19                        0                      
system.physmem.wrQLenPdf::20                        0                      
system.physmem.wrQLenPdf::21                        0                      
system.physmem.wrQLenPdf::22                        0                      
system.physmem.wrQLenPdf::23                        0                      
system.physmem.wrQLenPdf::24                        0                      
system.physmem.wrQLenPdf::25                        0                      
system.physmem.wrQLenPdf::26                        0                      
system.physmem.wrQLenPdf::27                        0                      
system.physmem.wrQLenPdf::28                        0                      
system.physmem.wrQLenPdf::29                        0                      
system.physmem.wrQLenPdf::30                        0                      
system.physmem.wrQLenPdf::31                        0                      
system.physmem.wrQLenPdf::32                        0                      
system.physmem.wrQLenPdf::33                        0                      
system.physmem.wrQLenPdf::34                        0                      
system.physmem.wrQLenPdf::35                        0                      
system.physmem.wrQLenPdf::36                        0                      
system.physmem.wrQLenPdf::37                        0                      
system.physmem.wrQLenPdf::38                        0                      
system.physmem.wrQLenPdf::39                        0                      
system.physmem.wrQLenPdf::40                        0                      
system.physmem.wrQLenPdf::41                        0                      
system.physmem.wrQLenPdf::42                        0                      
system.physmem.wrQLenPdf::43                        0                      
system.physmem.wrQLenPdf::44                        0                      
system.physmem.wrQLenPdf::45                        0                      
system.physmem.wrQLenPdf::46                        0                      
system.physmem.wrQLenPdf::47                        0                      
system.physmem.wrQLenPdf::48                        0                      
system.physmem.wrQLenPdf::49                        0                      
system.physmem.wrQLenPdf::50                        0                      
system.physmem.wrQLenPdf::51                        0                      
system.physmem.wrQLenPdf::52                        0                      
system.physmem.wrQLenPdf::53                        0                      
system.physmem.wrQLenPdf::54                        0                      
system.physmem.wrQLenPdf::55                        0                      
system.physmem.wrQLenPdf::56                        0                      
system.physmem.wrQLenPdf::57                        0                      
system.physmem.wrQLenPdf::58                        0                      
system.physmem.wrQLenPdf::59                        0                      
system.physmem.wrQLenPdf::60                        0                      
system.physmem.wrQLenPdf::61                        0                      
system.physmem.wrQLenPdf::62                        0                      
system.physmem.wrQLenPdf::63                        0                      
system.physmem.bytesPerActivate::samples          279                      
system.physmem.bytesPerActivate::mean      296.831541                      
system.physmem.bytesPerActivate::gmean     193.838283                      
system.physmem.bytesPerActivate::stdev     279.877460                      
system.physmem.bytesPerActivate::0-127             86     30.82%     30.82%
system.physmem.bytesPerActivate::128-255           67     24.01%     54.84%
system.physmem.bytesPerActivate::256-383           45     16.13%     70.97%
system.physmem.bytesPerActivate::384-511           23      8.24%     79.21%
system.physmem.bytesPerActivate::512-639           18      6.45%     85.66%
system.physmem.bytesPerActivate::640-767           11      3.94%     89.61%
system.physmem.bytesPerActivate::768-895            6      2.15%     91.76%
system.physmem.bytesPerActivate::896-1023            7      2.51%     94.27%
system.physmem.bytesPerActivate::1024-1151           16      5.73%    100.00%
system.physmem.bytesPerActivate::total            279                      
system.physmem.totQLat                       20265500                      
system.physmem.totMemAccLat                  44528000                      
system.physmem.totBusLat                      6470000                      
system.physmem.avgQLat                       15649.03                      
system.physmem.avgBusLat                      4996.14                      
system.physmem.avgMemAccLat                  34384.56                      
system.physmem.avgRdBW                         708.49                      
system.physmem.avgWrBW                           0.00                      
system.physmem.avgRdBWSys                      709.04                      
system.physmem.avgWrBWSys                        0.00                      
system.physmem.peakBW                        12800.00                      
system.physmem.busUtil                           5.54                      
system.physmem.busUtilRead                       5.54                      
system.physmem.busUtilWrite                      0.00                      
system.physmem.avgRdQLen                         1.50                      
system.physmem.avgWrQLen                         0.00                      
system.physmem.readRowHits                       1015                      
system.physmem.writeRowHits                         0                      
system.physmem.readRowHitRate                   78.38                      
system.physmem.writeRowHitRate                    nan                      
system.physmem.avgGap                        90195.37                      
system.physmem.pageHitRate                      78.38                      
system.physmem_0.actEnergy                     878220                      
system.physmem_0.preEnergy                     466785                      
system.physmem_0.readEnergy                   4176900                      
system.physmem_0.writeEnergy                        0                      
system.physmem_0.refreshEnergy           9219600.000000                      
system.physmem_0.actBackEnergy                8781990                      
system.physmem_0.preBackEnergy                 203520                      
system.physmem_0.actPowerDownEnergy          41757630                      
system.physmem_0.prePowerDownEnergy           2187840                      
system.physmem_0.selfRefreshEnergy                  0                      
system.physmem_0.totalEnergy                 67672485                      
system.physmem_0.averagePower              578.939135                      
system.physmem_0.totalIdleTime               97278000                      
system.physmem_0.memoryStateTime::IDLE         101500                      
system.physmem_0.memoryStateTime::REF         3717000                      
system.physmem_0.memoryStateTime::SREF              0                      
system.physmem_0.memoryStateTime::PRE_PDN      5696250                      
system.physmem_0.memoryStateTime::ACT        15794000                      
system.physmem_0.memoryStateTime::ACT_PDN     91581750                      
system.physmem_1.actEnergy                    1113840                      
system.physmem_1.preEnergy                     592020                      
system.physmem_1.readEnergy                   5062260                      
system.physmem_1.writeEnergy                        0                      
system.physmem_1.refreshEnergy           9219600.000000                      
system.physmem_1.actBackEnergy                9520140                      
system.physmem_1.preBackEnergy                 262080                      
system.physmem_1.actPowerDownEnergy          40584000                      
system.physmem_1.prePowerDownEnergy           2501280                      
system.physmem_1.selfRefreshEnergy                  0                      
system.physmem_1.totalEnergy                 68855220                      
system.physmem_1.averagePower              589.057451                      
system.physmem_1.totalIdleTime               95523500                      
system.physmem_1.memoryStateTime::IDLE         266000                      
system.physmem_1.memoryStateTime::REF         3704000                      
system.physmem_1.memoryStateTime::SREF              0                      
system.physmem_1.memoryStateTime::PRE_PDN      6513250                      
system.physmem_1.memoryStateTime::ACT        17397000                      
system.physmem_1.memoryStateTime::ACT_PDN     89010250                      
system.pwrStateResidencyTicks::UNDEFINED    116890500                      
system.cpu.branchPred.lookups                   33548                      
system.cpu.branchPred.condPredicted             23314                      
system.cpu.branchPred.condIncorrect              4600                      
system.cpu.branchPred.BTBLookups                26890                      
system.cpu.branchPred.BTBHits                   13517                      
system.cpu.branchPred.BTBCorrect                    0                      
system.cpu.branchPred.BTBHitPct             50.267758                      
system.cpu.branchPred.usedRAS                       0                      
system.cpu.branchPred.RASInCorrect                  0                      
system.cpu.branchPred.indirectLookups            7110                      
system.cpu.branchPred.indirectHits               3484                      
system.cpu.branchPred.indirectMisses             3626                      
system.cpu.branchPredindirectMispredicted         1490                      
system.cpu_clk_domain.clock                       500                      
system.cpu.dtb.read_hits                            0                      
system.cpu.dtb.read_misses                          0                      
system.cpu.dtb.read_accesses                        0                      
system.cpu.dtb.write_hits                           0                      
system.cpu.dtb.write_misses                         0                      
system.cpu.dtb.write_accesses                       0                      
system.cpu.dtb.hits                                 0                      
system.cpu.dtb.misses                               0                      
system.cpu.dtb.accesses                             0                      
system.cpu.itb.read_hits                            0                      
system.cpu.itb.read_misses                          0                      
system.cpu.itb.read_accesses                        0                      
system.cpu.itb.write_hits                           0                      
system.cpu.itb.write_misses                         0                      
system.cpu.itb.write_accesses                       0                      
system.cpu.itb.hits                                 0                      
system.cpu.itb.misses                               0                      
system.cpu.itb.accesses                             0                      
system.cpu.workload.numSyscalls                    43                      
system.cpu.pwrStateResidencyTicks::ON       116890500                      
system.cpu.numCycles                           233782                      
system.cpu.numWorkItemsStarted                      0                      
system.cpu.numWorkItemsCompleted                    0                      
system.cpu.fetch.icacheStallCycles              40259                      
system.cpu.fetch.Insts                         145625                      
system.cpu.fetch.Branches                       33548                      
system.cpu.fetch.predictedBranches              17001                      
system.cpu.fetch.Cycles                        108283                      
system.cpu.fetch.SquashCycles                    9384                      
system.cpu.fetch.MiscStallCycles                    2                      
system.cpu.fetch.IcacheWaitRetryStallCycles           16                      
system.cpu.fetch.CacheLines                     22279                      
system.cpu.fetch.IcacheSquashes                  1060                      
system.cpu.fetch.rateDist::samples             153252                      
system.cpu.fetch.rateDist::mean              0.952112                      
system.cpu.fetch.rateDist::stdev             1.011827                      
system.cpu.fetch.rateDist::underflows               0      0.00%      0.00%
system.cpu.fetch.rateDist::0                    52398     34.19%     34.19%
system.cpu.fetch.rateDist::1                    73629     48.04%     82.24%
system.cpu.fetch.rateDist::2                    16280     10.62%     92.86%
system.cpu.fetch.rateDist::3                     7004      4.57%     97.43%
system.cpu.fetch.rateDist::4                     2405      1.57%     99.00%
system.cpu.fetch.rateDist::5                      715      0.47%     99.46%
system.cpu.fetch.rateDist::6                      452      0.29%     99.76%
system.cpu.fetch.rateDist::7                      147      0.10%     99.86%
system.cpu.fetch.rateDist::8                      222      0.14%    100.00%
system.cpu.fetch.rateDist::overflows                0      0.00%    100.00%
system.cpu.fetch.rateDist::min_value                0                      
system.cpu.fetch.rateDist::max_value                8                      
system.cpu.fetch.rateDist::total               153252                      
system.cpu.fetch.branchRate                  0.143501                      
system.cpu.fetch.rate                        0.622909                      
system.cpu.decode.IdleCycles                    42515                      
system.cpu.decode.BlockedCycles                 16704                      
system.cpu.decode.RunCycles                     90167                      
system.cpu.decode.UnblockCycles                   493                      
system.cpu.decode.SquashCycles                   3373                      
system.cpu.decode.BranchResolved                13374                      
system.cpu.decode.BranchMispred                  1371                      
system.cpu.decode.DecodedInsts                 135994                      
system.cpu.decode.SquashedInsts                  2349                      
system.cpu.rename.SquashCycles                   3373                      
system.cpu.rename.IdleCycles                    46631                      
system.cpu.rename.BlockCycles                    2493                      
system.cpu.rename.serializeStallCycles           8999                      
system.cpu.rename.RunCycles                     86529                      
system.cpu.rename.UnblockCycles                  5227                      
system.cpu.rename.RenamedInsts                 131576                      
system.cpu.rename.ROBFullEvents                     5                      
system.cpu.rename.IQFullEvents                      2                      
system.cpu.rename.LQFullEvents                   2491                      
system.cpu.rename.SQFullEvents                   2432                      
system.cpu.rename.RenamedOperands               87091                      
system.cpu.rename.RenameLookups                161176                      
system.cpu.rename.int_rename_lookups           161164                      
system.cpu.rename.fp_rename_lookups                12                      
system.cpu.rename.CommittedMaps                 72073                      
system.cpu.rename.UndoneMaps                    15018                      
system.cpu.rename.serializingInsts                349                      
system.cpu.rename.tempSerializingInsts            348                      
system.cpu.rename.skidInsts                      1274                      
system.cpu.memDep0.insertedLoads                28624                      
system.cpu.memDep0.insertedStores               17962                      
system.cpu.memDep0.conflictingLoads               262                      
system.cpu.memDep0.conflictingStores               32                      
system.cpu.iq.iqInstsAdded                     123581                      
system.cpu.iq.iqNonSpecInstsAdded                 620                      
system.cpu.iq.iqInstsIssued                    122119                      
system.cpu.iq.iqSquashedInstsIssued                62                      
system.cpu.iq.iqSquashedInstsExamined           14483                      
system.cpu.iq.iqSquashedOperandsExamined         5150                      
system.cpu.iq.iqSquashedNonSpecRemoved             50                      
system.cpu.iq.issued_per_cycle::samples        153252                      
system.cpu.iq.issued_per_cycle::mean         0.796851                      
system.cpu.iq.issued_per_cycle::stdev        0.947673                      
system.cpu.iq.issued_per_cycle::underflows            0      0.00%      0.00%
system.cpu.iq.issued_per_cycle::0               66768     43.57%     43.57%
system.cpu.iq.issued_per_cycle::1               63012     41.12%     84.68%
system.cpu.iq.issued_per_cycle::2               15805     10.31%     95.00%
system.cpu.iq.issued_per_cycle::3                5380      3.51%     98.51%
system.cpu.iq.issued_per_cycle::4                1275      0.83%     99.34%
system.cpu.iq.issued_per_cycle::5                 333      0.22%     99.56%
system.cpu.iq.issued_per_cycle::6                 355      0.23%     99.79%
system.cpu.iq.issued_per_cycle::7                 130      0.08%     99.87%
system.cpu.iq.issued_per_cycle::8                 194      0.13%    100.00%
system.cpu.iq.issued_per_cycle::overflows            0      0.00%    100.00%
system.cpu.iq.issued_per_cycle::min_value            0                      
system.cpu.iq.issued_per_cycle::max_value            8                      
system.cpu.iq.issued_per_cycle::total          153252                      
system.cpu.iq.fu_full::No_OpClass                   0      0.00%      0.00%
system.cpu.iq.fu_full::IntAlu                      17      4.62%      4.62%
system.cpu.iq.fu_full::IntMult                      0      0.00%      4.62%
system.cpu.iq.fu_full::IntDiv                       0      0.00%      4.62%
system.cpu.iq.fu_full::FloatAdd                     0      0.00%      4.62%
system.cpu.iq.fu_full::FloatCmp                     0      0.00%      4.62%
system.cpu.iq.fu_full::FloatCvt                     0      0.00%      4.62%
system.cpu.iq.fu_full::FloatMult                    0      0.00%      4.62%
system.cpu.iq.fu_full::FloatMultAcc                 0      0.00%      4.62%
system.cpu.iq.fu_full::FloatDiv                     0      0.00%      4.62%
system.cpu.iq.fu_full::FloatMisc                    0      0.00%      4.62%
system.cpu.iq.fu_full::FloatSqrt                    0      0.00%      4.62%
system.cpu.iq.fu_full::SimdAdd                      0      0.00%      4.62%
system.cpu.iq.fu_full::SimdAddAcc                   0      0.00%      4.62%
system.cpu.iq.fu_full::SimdAlu                      0      0.00%      4.62%
system.cpu.iq.fu_full::SimdCmp                      0      0.00%      4.62%
system.cpu.iq.fu_full::SimdCvt                      0      0.00%      4.62%
system.cpu.iq.fu_full::SimdMisc                     0      0.00%      4.62%
system.cpu.iq.fu_full::SimdMult                     0      0.00%      4.62%
system.cpu.iq.fu_full::SimdMultAcc                  0      0.00%      4.62%
system.cpu.iq.fu_full::SimdShift                    0      0.00%      4.62%
system.cpu.iq.fu_full::SimdShiftAcc                 0      0.00%      4.62%
system.cpu.iq.fu_full::SimdSqrt                     0      0.00%      4.62%
system.cpu.iq.fu_full::SimdFloatAdd                 0      0.00%      4.62%
system.cpu.iq.fu_full::SimdFloatAlu                 0      0.00%      4.62%
system.cpu.iq.fu_full::SimdFloatCmp                 0      0.00%      4.62%
system.cpu.iq.fu_full::SimdFloatCvt                 0      0.00%      4.62%
system.cpu.iq.fu_full::SimdFloatDiv                 0      0.00%      4.62%
system.cpu.iq.fu_full::SimdFloatMisc                0      0.00%      4.62%
system.cpu.iq.fu_full::SimdFloatMult                0      0.00%      4.62%
system.cpu.iq.fu_full::SimdFloatMultAcc             0      0.00%      4.62%
system.cpu.iq.fu_full::SimdFloatSqrt                0      0.00%      4.62%
system.cpu.iq.fu_full::MemRead                    104     28.26%     32.88%
system.cpu.iq.fu_full::MemWrite                   245     66.58%     99.46%
system.cpu.iq.fu_full::FloatMemRead                 0      0.00%     99.46%
system.cpu.iq.fu_full::FloatMemWrite                2      0.54%    100.00%
system.cpu.iq.fu_full::IprAccess                    0      0.00%    100.00%
system.cpu.iq.fu_full::InstPrefetch                 0      0.00%    100.00%
system.cpu.iq.FU_type_0::No_OpClass                47      0.04%      0.04%
system.cpu.iq.FU_type_0::IntAlu                 76104     62.32%     62.36%
system.cpu.iq.FU_type_0::IntMult                  109      0.09%     62.45%
system.cpu.iq.FU_type_0::IntDiv                     5      0.00%     62.45%
system.cpu.iq.FU_type_0::FloatAdd                   0      0.00%     62.45%
system.cpu.iq.FU_type_0::FloatCmp                   0      0.00%     62.45%
system.cpu.iq.FU_type_0::FloatCvt                   0      0.00%     62.45%
system.cpu.iq.FU_type_0::FloatMult                  0      0.00%     62.45%
system.cpu.iq.FU_type_0::FloatMultAcc               0      0.00%     62.45%
system.cpu.iq.FU_type_0::FloatDiv                   0      0.00%     62.45%
system.cpu.iq.FU_type_0::FloatMisc                  0      0.00%     62.45%
system.cpu.iq.FU_type_0::FloatSqrt                  0      0.00%     62.45%
system.cpu.iq.FU_type_0::SimdAdd                    0      0.00%     62.45%
system.cpu.iq.FU_type_0::SimdAddAcc                 0      0.00%     62.45%
system.cpu.iq.FU_type_0::SimdAlu                    0      0.00%     62.45%
system.cpu.iq.FU_type_0::SimdCmp                    0      0.00%     62.45%
system.cpu.iq.FU_type_0::SimdCvt                    0      0.00%     62.45%
system.cpu.iq.FU_type_0::SimdMisc                   0      0.00%     62.45%
system.cpu.iq.FU_type_0::SimdMult                   0      0.00%     62.45%
system.cpu.iq.FU_type_0::SimdMultAcc                0      0.00%     62.45%
system.cpu.iq.FU_type_0::SimdShift                  0      0.00%     62.45%
system.cpu.iq.FU_type_0::SimdShiftAcc               0      0.00%     62.45%
system.cpu.iq.FU_type_0::SimdSqrt                   0      0.00%     62.45%
system.cpu.iq.FU_type_0::SimdFloatAdd               0      0.00%     62.45%
system.cpu.iq.FU_type_0::SimdFloatAlu               0      0.00%     62.45%
system.cpu.iq.FU_type_0::SimdFloatCmp               0      0.00%     62.45%
system.cpu.iq.FU_type_0::SimdFloatCvt               0      0.00%     62.45%
system.cpu.iq.FU_type_0::SimdFloatDiv               0      0.00%     62.45%
system.cpu.iq.FU_type_0::SimdFloatMisc              0      0.00%     62.45%
system.cpu.iq.FU_type_0::SimdFloatMult              0      0.00%     62.45%
system.cpu.iq.FU_type_0::SimdFloatMultAcc            0      0.00%     62.45%
system.cpu.iq.FU_type_0::SimdFloatSqrt              0      0.00%     62.45%
system.cpu.iq.FU_type_0::MemRead                28262     23.14%     85.59%
system.cpu.iq.FU_type_0::MemWrite               17580     14.40%     99.99%
system.cpu.iq.FU_type_0::FloatMemRead               0      0.00%     99.99%
system.cpu.iq.FU_type_0::FloatMemWrite             12      0.01%    100.00%
system.cpu.iq.FU_type_0::IprAccess                  0      0.00%    100.00%
system.cpu.iq.FU_type_0::InstPrefetch               0      0.00%    100.00%
system.cpu.iq.FU_type_0::total                 122119                      
system.cpu.iq.rate                           0.522363                      
system.cpu.iq.fu_busy_cnt                         368                      
system.cpu.iq.fu_busy_rate                   0.003013                      
system.cpu.iq.int_inst_queue_reads             397894                      
system.cpu.iq.int_inst_queue_writes            138722                      
system.cpu.iq.int_inst_queue_wakeup_accesses       117459                      
system.cpu.iq.fp_inst_queue_reads                  26                      
system.cpu.iq.fp_inst_queue_writes                 12                      
system.cpu.iq.fp_inst_queue_wakeup_accesses           12                      
system.cpu.iq.vec_inst_queue_reads                  0                      
system.cpu.iq.vec_inst_queue_writes                 0                      
system.cpu.iq.vec_inst_queue_wakeup_accesses            0                      
system.cpu.iq.int_alu_accesses                 122426                      
system.cpu.iq.fp_alu_accesses                      14                      
system.cpu.iq.vec_alu_accesses                      0                      
system.cpu.iew.lsq.thread0.forwLoads              587                      
system.cpu.iew.lsq.thread0.invAddrLoads             0                      
system.cpu.iew.lsq.thread0.squashedLoads         3025                      
system.cpu.iew.lsq.thread0.ignoredResponses           17                      
system.cpu.iew.lsq.thread0.memOrderViolation           51                      
system.cpu.iew.lsq.thread0.squashedStores         1281                      
system.cpu.iew.lsq.thread0.invAddrSwpfs             0                      
system.cpu.iew.lsq.thread0.blockedLoads             0                      
system.cpu.iew.lsq.thread0.rescheduledLoads            4                      
system.cpu.iew.lsq.thread0.cacheBlocked           110                      
system.cpu.iew.iewIdleCycles                        0                      
system.cpu.iew.iewSquashCycles                   3373                      
system.cpu.iew.iewBlockCycles                     880                      
system.cpu.iew.iewUnblockCycles                  1207                      
system.cpu.iew.iewDispatchedInsts              124201                      
system.cpu.iew.iewDispSquashedInsts              3409                      
system.cpu.iew.iewDispLoadInsts                 28624                      
system.cpu.iew.iewDispStoreInsts                17962                      
system.cpu.iew.iewDispNonSpecInsts                614                      
system.cpu.iew.iewIQFullEvents                      0                      
system.cpu.iew.iewLSQFullEvents                  1208                      
system.cpu.iew.memOrderViolationEvents             51                      
system.cpu.iew.predictedTakenIncorrect           1217                      
system.cpu.iew.predictedNotTakenIncorrect         2412                      
system.cpu.iew.branchMispredicts                 3629                      
system.cpu.iew.iewExecutedInsts                118485                      
system.cpu.iew.iewExecLoadInsts                 27576                      
system.cpu.iew.iewExecSquashedInsts              3634                      
system.cpu.iew.exec_swp                             0                      
system.cpu.iew.exec_nop                             0                      
system.cpu.iew.exec_refs                        44943                      
system.cpu.iew.exec_branches                    26591                      
system.cpu.iew.exec_stores                      17367                      
system.cpu.iew.exec_rate                     0.506818                      
system.cpu.iew.wb_sent                         117662                      
system.cpu.iew.wb_count                        117471                      
system.cpu.iew.wb_producers                     39319                      
system.cpu.iew.wb_consumers                     45584                      
system.cpu.iew.wb_rate                       0.502481                      
system.cpu.iew.wb_fanout                     0.862561                      
system.cpu.commit.commitSquashedInsts           14494                      
system.cpu.commit.commitNonSpecStalls             570                      
system.cpu.commit.branchMispredicts              3281                      
system.cpu.commit.committed_per_cycle::samples       149214                      
system.cpu.commit.committed_per_cycle::mean     0.735300                      
system.cpu.commit.committed_per_cycle::stdev     1.287490                      
system.cpu.commit.committed_per_cycle::underflows            0      0.00%      0.00%
system.cpu.commit.committed_per_cycle::0        89471     59.96%     59.96%
system.cpu.commit.committed_per_cycle::1        37265     24.97%     84.94%
system.cpu.commit.committed_per_cycle::2         8591      5.76%     90.69%
system.cpu.commit.committed_per_cycle::3         8448      5.66%     96.35%
system.cpu.commit.committed_per_cycle::4         2508      1.68%     98.04%
system.cpu.commit.committed_per_cycle::5          886      0.59%     98.63%
system.cpu.commit.committed_per_cycle::6          318      0.21%     98.84%
system.cpu.commit.committed_per_cycle::7          260      0.17%     99.02%
system.cpu.commit.committed_per_cycle::8         1467      0.98%    100.00%
system.cpu.commit.committed_per_cycle::overflows            0      0.00%    100.00%
system.cpu.commit.committed_per_cycle::min_value            0                      
system.cpu.commit.committed_per_cycle::max_value            8                      
system.cpu.commit.committed_per_cycle::total       149214                      
system.cpu.commit.committedInsts               109472                      
system.cpu.commit.committedOps                 109717                      
system.cpu.commit.swp_count                         0                      
system.cpu.commit.refs                          42280                      
system.cpu.commit.loads                         25599                      
system.cpu.commit.membars                           4                      
system.cpu.commit.branches                      24434                      
system.cpu.commit.vec_insts                         0                      
system.cpu.commit.fp_insts                         12                      
system.cpu.commit.int_insts                    109150                      
system.cpu.commit.function_calls                 6222                      
system.cpu.commit.op_class_0::No_OpClass            4      0.00%      0.00%
system.cpu.commit.op_class_0::IntAlu            67322     61.36%     61.36%
system.cpu.commit.op_class_0::IntMult             107      0.10%     61.46%
system.cpu.commit.op_class_0::IntDiv                4      0.00%     61.46%
system.cpu.commit.op_class_0::FloatAdd              0      0.00%     61.46%
system.cpu.commit.op_class_0::FloatCmp              0      0.00%     61.46%
system.cpu.commit.op_class_0::FloatCvt              0      0.00%     61.46%
system.cpu.commit.op_class_0::FloatMult             0      0.00%     61.46%
system.cpu.commit.op_class_0::FloatMultAcc            0      0.00%     61.46%
system.cpu.commit.op_class_0::FloatDiv              0      0.00%     61.46%
system.cpu.commit.op_class_0::FloatMisc             0      0.00%     61.46%
system.cpu.commit.op_class_0::FloatSqrt             0      0.00%     61.46%
system.cpu.commit.op_class_0::SimdAdd               0      0.00%     61.46%
system.cpu.commit.op_class_0::SimdAddAcc            0      0.00%     61.46%
system.cpu.commit.op_class_0::SimdAlu               0      0.00%     61.46%
system.cpu.commit.op_class_0::SimdCmp               0      0.00%     61.46%
system.cpu.commit.op_class_0::SimdCvt               0      0.00%     61.46%
system.cpu.commit.op_class_0::SimdMisc              0      0.00%     61.46%
system.cpu.commit.op_class_0::SimdMult              0      0.00%     61.46%
system.cpu.commit.op_class_0::SimdMultAcc            0      0.00%     61.46%
system.cpu.commit.op_class_0::SimdShift             0      0.00%     61.46%
system.cpu.commit.op_class_0::SimdShiftAcc            0      0.00%     61.46%
system.cpu.commit.op_class_0::SimdSqrt              0      0.00%     61.46%
system.cpu.commit.op_class_0::SimdFloatAdd            0      0.00%     61.46%
system.cpu.commit.op_class_0::SimdFloatAlu            0      0.00%     61.46%
system.cpu.commit.op_class_0::SimdFloatCmp            0      0.00%     61.46%
system.cpu.commit.op_class_0::SimdFloatCvt            0      0.00%     61.46%
system.cpu.commit.op_class_0::SimdFloatDiv            0      0.00%     61.46%
system.cpu.commit.op_class_0::SimdFloatMisc            0      0.00%     61.46%
system.cpu.commit.op_class_0::SimdFloatMult            0      0.00%     61.46%
system.cpu.commit.op_class_0::SimdFloatMultAcc            0      0.00%     61.46%
system.cpu.commit.op_class_0::SimdFloatSqrt            0      0.00%     61.46%
system.cpu.commit.op_class_0::MemRead           25599     23.33%     84.80%
system.cpu.commit.op_class_0::MemWrite          16669     15.19%     99.99%
system.cpu.commit.op_class_0::FloatMemRead            0      0.00%     99.99%
system.cpu.commit.op_class_0::FloatMemWrite           12      0.01%    100.00%
system.cpu.commit.op_class_0::IprAccess             0      0.00%    100.00%
system.cpu.commit.op_class_0::InstPrefetch            0      0.00%    100.00%
system.cpu.commit.op_class_0::total            109717                      
system.cpu.commit.bw_lim_events                  1467                      
system.cpu.rob.rob_reads                       271412                      
system.cpu.rob.rob_writes                      252469                      
system.cpu.timesIdled                             628                      
system.cpu.idleCycles                           80530                      
system.cpu.committedInsts                      109472                      
system.cpu.committedOps                        109717                      
system.cpu.cpi                               2.135542                      
system.cpu.cpi_total                         2.135542                      
system.cpu.ipc                               0.468265                      
system.cpu.ipc_total                         0.468265                      
system.cpu.int_regfile_reads                   146656                      
system.cpu.int_regfile_writes                   77375                      
system.cpu.fp_regfile_reads                        12                      
system.cpu.dcache.tags.pwrStateResidencyTicks::UNDEFINED    116890500                      
system.cpu.dcache.tags.replacements                 0                      
system.cpu.dcache.tags.tagsinuse           325.120785                      
system.cpu.dcache.tags.total_refs               41764                      
system.cpu.dcache.tags.sampled_refs               468                      
system.cpu.dcache.tags.avg_refs             89.239316                      
system.cpu.dcache.tags.warmup_cycle            261500                      
system.cpu.dcache.tags.occ_blocks::cpu.data   325.120785                      
system.cpu.dcache.tags.occ_percent::cpu.data     0.079375                      
system.cpu.dcache.tags.occ_percent::total     0.079375                      
system.cpu.dcache.tags.occ_task_id_blocks::1024          468                      
system.cpu.dcache.tags.age_task_id_blocks_1024::0           16                      
system.cpu.dcache.tags.age_task_id_blocks_1024::1          288                      
system.cpu.dcache.tags.age_task_id_blocks_1024::2          164                      
system.cpu.dcache.tags.occ_task_id_percent::1024     0.114258                      
system.cpu.dcache.tags.tag_accesses             87424                      
system.cpu.dcache.tags.data_accesses            87424                      
system.cpu.dcache.pwrStateResidencyTicks::UNDEFINED    116890500                      
system.cpu.dcache.ReadReq_hits::cpu.data        26026                      
system.cpu.dcache.ReadReq_hits::total           26026                      
system.cpu.dcache.WriteReq_hits::cpu.data        15180                      
system.cpu.dcache.WriteReq_hits::total          15180                      
system.cpu.dcache.LoadLockedReq_hits::cpu.data          282                      
system.cpu.dcache.LoadLockedReq_hits::total          282                      
system.cpu.dcache.StoreCondReq_hits::cpu.data          276                      
system.cpu.dcache.StoreCondReq_hits::total          276                      
system.cpu.dcache.demand_hits::cpu.data         41206                      
system.cpu.dcache.demand_hits::total            41206                      
system.cpu.dcache.overall_hits::cpu.data        41206                      
system.cpu.dcache.overall_hits::total           41206                      
system.cpu.dcache.ReadReq_misses::cpu.data          488                      
system.cpu.dcache.ReadReq_misses::total           488                      
system.cpu.dcache.WriteReq_misses::cpu.data         1223                      
system.cpu.dcache.WriteReq_misses::total         1223                      
system.cpu.dcache.LoadLockedReq_misses::cpu.data            3                      
system.cpu.dcache.LoadLockedReq_misses::total            3                      
system.cpu.dcache.demand_misses::cpu.data         1711                      
system.cpu.dcache.demand_misses::total           1711                      
system.cpu.dcache.overall_misses::cpu.data         1711                      
system.cpu.dcache.overall_misses::total          1711                      
system.cpu.dcache.ReadReq_miss_latency::cpu.data     36576500                      
system.cpu.dcache.ReadReq_miss_latency::total     36576500                      
system.cpu.dcache.WriteReq_miss_latency::cpu.data     81461965                      
system.cpu.dcache.WriteReq_miss_latency::total     81461965                      
system.cpu.dcache.LoadLockedReq_miss_latency::cpu.data       269000                      
system.cpu.dcache.LoadLockedReq_miss_latency::total       269000                      
system.cpu.dcache.demand_miss_latency::cpu.data    118038465                      
system.cpu.dcache.demand_miss_latency::total    118038465                      
system.cpu.dcache.overall_miss_latency::cpu.data    118038465                      
system.cpu.dcache.overall_miss_latency::total    118038465                      
system.cpu.dcache.ReadReq_accesses::cpu.data        26514                      
system.cpu.dcache.ReadReq_accesses::total        26514                      
system.cpu.dcache.WriteReq_accesses::cpu.data        16403                      
system.cpu.dcache.WriteReq_accesses::total        16403                      
system.cpu.dcache.LoadLockedReq_accesses::cpu.data          285                      
system.cpu.dcache.LoadLockedReq_accesses::total          285                      
system.cpu.dcache.StoreCondReq_accesses::cpu.data          276                      
system.cpu.dcache.StoreCondReq_accesses::total          276                      
system.cpu.dcache.demand_accesses::cpu.data        42917                      
system.cpu.dcache.demand_accesses::total        42917                      
system.cpu.dcache.overall_accesses::cpu.data        42917                      
system.cpu.dcache.overall_accesses::total        42917                      
system.cpu.dcache.ReadReq_miss_rate::cpu.data     0.018405                      
system.cpu.dcache.ReadReq_miss_rate::total     0.018405                      
system.cpu.dcache.WriteReq_miss_rate::cpu.data     0.074560                      
system.cpu.dcache.WriteReq_miss_rate::total     0.074560                      
system.cpu.dcache.LoadLockedReq_miss_rate::cpu.data     0.010526                      
system.cpu.dcache.LoadLockedReq_miss_rate::total     0.010526                      
system.cpu.dcache.demand_miss_rate::cpu.data     0.039868                      
system.cpu.dcache.demand_miss_rate::total     0.039868                      
system.cpu.dcache.overall_miss_rate::cpu.data     0.039868                      
system.cpu.dcache.overall_miss_rate::total     0.039868                      
system.cpu.dcache.ReadReq_avg_miss_latency::cpu.data 74951.844262                      
system.cpu.dcache.ReadReq_avg_miss_latency::total 74951.844262                      
system.cpu.dcache.WriteReq_avg_miss_latency::cpu.data 66608.311529                      
system.cpu.dcache.WriteReq_avg_miss_latency::total 66608.311529                      
system.cpu.dcache.LoadLockedReq_avg_miss_latency::cpu.data 89666.666667                      
system.cpu.dcache.LoadLockedReq_avg_miss_latency::total 89666.666667                      
system.cpu.dcache.demand_avg_miss_latency::cpu.data 68987.998247                      
system.cpu.dcache.demand_avg_miss_latency::total 68987.998247                      
system.cpu.dcache.overall_avg_miss_latency::cpu.data 68987.998247                      
system.cpu.dcache.overall_avg_miss_latency::total 68987.998247                      
system.cpu.dcache.blocked_cycles::no_mshrs         2976                      
system.cpu.dcache.blocked_cycles::no_targets           77                      
system.cpu.dcache.blocked::no_mshrs                52                      
system.cpu.dcache.blocked::no_targets               1                      
system.cpu.dcache.avg_blocked_cycles::no_mshrs    57.230769                      
system.cpu.dcache.avg_blocked_cycles::no_targets           77                      
system.cpu.dcache.ReadReq_mshr_hits::cpu.data          243                      
system.cpu.dcache.ReadReq_mshr_hits::total          243                      
system.cpu.dcache.WriteReq_mshr_hits::cpu.data         1001                      
system.cpu.dcache.WriteReq_mshr_hits::total         1001                      
system.cpu.dcache.LoadLockedReq_mshr_hits::cpu.data            2                      
system.cpu.dcache.LoadLockedReq_mshr_hits::total            2                      
system.cpu.dcache.demand_mshr_hits::cpu.data         1244                      
system.cpu.dcache.demand_mshr_hits::total         1244                      
system.cpu.dcache.overall_mshr_hits::cpu.data         1244                      
system.cpu.dcache.overall_mshr_hits::total         1244                      
system.cpu.dcache.ReadReq_mshr_misses::cpu.data          245                      
system.cpu.dcache.ReadReq_mshr_misses::total          245                      
system.cpu.dcache.WriteReq_mshr_misses::cpu.data          222                      
system.cpu.dcache.WriteReq_mshr_misses::total          222                      
system.cpu.dcache.LoadLockedReq_mshr_misses::cpu.data            1                      
system.cpu.dcache.LoadLockedReq_mshr_misses::total            1                      
system.cpu.dcache.demand_mshr_misses::cpu.data          467                      
system.cpu.dcache.demand_mshr_misses::total          467                      
system.cpu.dcache.overall_mshr_misses::cpu.data          467                      
system.cpu.dcache.overall_mshr_misses::total          467                      
system.cpu.dcache.ReadReq_mshr_miss_latency::cpu.data     21836500                      
system.cpu.dcache.ReadReq_mshr_miss_latency::total     21836500                      
system.cpu.dcache.WriteReq_mshr_miss_latency::cpu.data     18917998                      
system.cpu.dcache.WriteReq_mshr_miss_latency::total     18917998                      
system.cpu.dcache.LoadLockedReq_mshr_miss_latency::cpu.data        77500                      
system.cpu.dcache.LoadLockedReq_mshr_miss_latency::total        77500                      
system.cpu.dcache.demand_mshr_miss_latency::cpu.data     40754498                      
system.cpu.dcache.demand_mshr_miss_latency::total     40754498                      
system.cpu.dcache.overall_mshr_miss_latency::cpu.data     40754498                      
system.cpu.dcache.overall_mshr_miss_latency::total     40754498                      
system.cpu.dcache.ReadReq_mshr_miss_rate::cpu.data     0.009240                      
system.cpu.dcache.ReadReq_mshr_miss_rate::total     0.009240                      
system.cpu.dcache.WriteReq_mshr_miss_rate::cpu.data     0.013534                      
system.cpu.dcache.WriteReq_mshr_miss_rate::total     0.013534                      
system.cpu.dcache.LoadLockedReq_mshr_miss_rate::cpu.data     0.003509                      
system.cpu.dcache.LoadLockedReq_mshr_miss_rate::total     0.003509                      
system.cpu.dcache.demand_mshr_miss_rate::cpu.data     0.010881                      
system.cpu.dcache.demand_mshr_miss_rate::total     0.010881                      
system.cpu.dcache.overall_mshr_miss_rate::cpu.data     0.010881                      
system.cpu.dcache.overall_mshr_miss_rate::total     0.010881                      
system.cpu.dcache.ReadReq_avg_mshr_miss_latency::cpu.data 89128.571429                      
system.cpu.dcache.ReadReq_avg_mshr_miss_latency::total 89128.571429                      
system.cpu.dcache.WriteReq_avg_mshr_miss_latency::cpu.data 85216.207207                      
system.cpu.dcache.WriteReq_avg_mshr_miss_latency::total 85216.207207                      
system.cpu.dcache.LoadLockedReq_avg_mshr_miss_latency::cpu.data        77500                      
system.cpu.dcache.LoadLockedReq_avg_mshr_miss_latency::total        77500                      
system.cpu.dcache.demand_avg_mshr_miss_latency::cpu.data 87268.732334                      
system.cpu.dcache.demand_avg_mshr_miss_latency::total 87268.732334                      
system.cpu.dcache.overall_avg_mshr_miss_latency::cpu.data 87268.732334                      
system.cpu.dcache.overall_avg_mshr_miss_latency::total 87268.732334                      
system.cpu.icache.tags.pwrStateResidencyTicks::UNDEFINED    116890500                      
system.cpu.icache.tags.replacements                63                      
system.cpu.icache.tags.tagsinuse           469.446031                      
system.cpu.icache.tags.total_refs               21295                      
system.cpu.icache.tags.sampled_refs               833                      
system.cpu.icache.tags.avg_refs             25.564226                      
system.cpu.icache.tags.warmup_cycle             87500                      
system.cpu.icache.tags.occ_blocks::cpu.inst   469.446031                      
system.cpu.icache.tags.occ_percent::cpu.inst     0.229222                      
system.cpu.icache.tags.occ_percent::total     0.229222                      
system.cpu.icache.tags.occ_task_id_blocks::1024          770                      
system.cpu.icache.tags.age_task_id_blocks_1024::0           56                      
system.cpu.icache.tags.age_task_id_blocks_1024::1          533                      
system.cpu.icache.tags.age_task_id_blocks_1024::2          181                      
system.cpu.icache.tags.occ_task_id_percent::1024     0.375977                      
system.cpu.icache.tags.tag_accesses             45391                      
system.cpu.icache.tags.data_accesses            45391                      
system.cpu.icache.pwrStateResidencyTicks::UNDEFINED    116890500                      
system.cpu.icache.ReadReq_hits::cpu.inst        21295                      
system.cpu.icache.ReadReq_hits::total           21295                      
system.cpu.icache.demand_hits::cpu.inst         21295                      
system.cpu.icache.demand_hits::total            21295                      
system.cpu.icache.overall_hits::cpu.inst        21295                      
system.cpu.icache.overall_hits::total           21295                      
system.cpu.icache.ReadReq_misses::cpu.inst          984                      
system.cpu.icache.ReadReq_misses::total           984                      
system.cpu.icache.demand_misses::cpu.inst          984                      
system.cpu.icache.demand_misses::total            984                      
system.cpu.icache.overall_misses::cpu.inst          984                      
system.cpu.icache.overall_misses::total           984                      
system.cpu.icache.ReadReq_miss_latency::cpu.inst     81815498                      
system.cpu.icache.ReadReq_miss_latency::total     81815498                      
system.cpu.icache.demand_miss_latency::cpu.inst     81815498                      
system.cpu.icache.demand_miss_latency::total     81815498                      
system.cpu.icache.overall_miss_latency::cpu.inst     81815498                      
system.cpu.icache.overall_miss_latency::total     81815498                      
system.cpu.icache.ReadReq_accesses::cpu.inst        22279                      
system.cpu.icache.ReadReq_accesses::total        22279                      
system.cpu.icache.demand_accesses::cpu.inst        22279                      
system.cpu.icache.demand_accesses::total        22279                      
system.cpu.icache.overall_accesses::cpu.inst        22279                      
system.cpu.icache.overall_accesses::total        22279                      
system.cpu.icache.ReadReq_miss_rate::cpu.inst     0.044167                      
system.cpu.icache.ReadReq_miss_rate::total     0.044167                      
system.cpu.icache.demand_miss_rate::cpu.inst     0.044167                      
system.cpu.icache.demand_miss_rate::total     0.044167                      
system.cpu.icache.overall_miss_rate::cpu.inst     0.044167                      
system.cpu.icache.overall_miss_rate::total     0.044167                      
system.cpu.icache.ReadReq_avg_miss_latency::cpu.inst 83145.831301                      
system.cpu.icache.ReadReq_avg_miss_latency::total 83145.831301                      
system.cpu.icache.demand_avg_miss_latency::cpu.inst 83145.831301                      
system.cpu.icache.demand_avg_miss_latency::total 83145.831301                      
system.cpu.icache.overall_avg_miss_latency::cpu.inst 83145.831301                      
system.cpu.icache.overall_avg_miss_latency::total 83145.831301                      
system.cpu.icache.blocked_cycles::no_mshrs         1056                      
system.cpu.icache.blocked_cycles::no_targets            0                      
system.cpu.icache.blocked::no_mshrs                 8                      
system.cpu.icache.blocked::no_targets               0                      
system.cpu.icache.avg_blocked_cycles::no_mshrs          132                      
system.cpu.icache.avg_blocked_cycles::no_targets          nan                      
system.cpu.icache.writebacks::writebacks           63                      
system.cpu.icache.writebacks::total                63                      
system.cpu.icache.ReadReq_mshr_hits::cpu.inst          150                      
system.cpu.icache.ReadReq_mshr_hits::total          150                      
system.cpu.icache.demand_mshr_hits::cpu.inst          150                      
system.cpu.icache.demand_mshr_hits::total          150                      
system.cpu.icache.overall_mshr_hits::cpu.inst          150                      
system.cpu.icache.overall_mshr_hits::total          150                      
system.cpu.icache.ReadReq_mshr_misses::cpu.inst          834                      
system.cpu.icache.ReadReq_mshr_misses::total          834                      
system.cpu.icache.demand_mshr_misses::cpu.inst          834                      
system.cpu.icache.demand_mshr_misses::total          834                      
system.cpu.icache.overall_mshr_misses::cpu.inst          834                      
system.cpu.icache.overall_mshr_misses::total          834                      
system.cpu.icache.ReadReq_mshr_miss_latency::cpu.inst     71936998                      
system.cpu.icache.ReadReq_mshr_miss_latency::total     71936998                      
system.cpu.icache.demand_mshr_miss_latency::cpu.inst     71936998                      
system.cpu.icache.demand_mshr_miss_latency::total     71936998                      
system.cpu.icache.overall_mshr_miss_latency::cpu.inst     71936998                      
system.cpu.icache.overall_mshr_miss_latency::total     71936998                      
system.cpu.icache.ReadReq_mshr_miss_rate::cpu.inst     0.037434                      
system.cpu.icache.ReadReq_mshr_miss_rate::total     0.037434                      
system.cpu.icache.demand_mshr_miss_rate::cpu.inst     0.037434                      
system.cpu.icache.demand_mshr_miss_rate::total     0.037434                      
system.cpu.icache.overall_mshr_miss_rate::cpu.inst     0.037434                      
system.cpu.icache.overall_mshr_miss_rate::total     0.037434                      
system.cpu.icache.ReadReq_avg_mshr_miss_latency::cpu.inst 86255.393285                      
system.cpu.icache.ReadReq_avg_mshr_miss_latency::total 86255.393285                      
system.cpu.icache.demand_avg_mshr_miss_latency::cpu.inst 86255.393285                      
system.cpu.icache.demand_avg_mshr_miss_latency::total 86255.393285                      
system.cpu.icache.overall_avg_mshr_miss_latency::cpu.inst 86255.393285                      
system.cpu.icache.overall_avg_mshr_miss_latency::total 86255.393285                      
system.cpu.l2cache.tags.pwrStateResidencyTicks::UNDEFINED    116890500                      
system.cpu.l2cache.tags.replacements                0                      
system.cpu.l2cache.tags.tagsinuse          817.770379                      
system.cpu.l2cache.tags.total_refs                 70                      
system.cpu.l2cache.tags.sampled_refs             1294                      
system.cpu.l2cache.tags.avg_refs             0.054096                      
system.cpu.l2cache.tags.warmup_cycle            77000                      
system.cpu.l2cache.tags.occ_blocks::cpu.inst   492.607554                      
system.cpu.l2cache.tags.occ_blocks::cpu.data   325.162825                      
system.cpu.l2cache.tags.occ_percent::cpu.inst     0.015033                      
system.cpu.l2cache.tags.occ_percent::cpu.data     0.009923                      
system.cpu.l2cache.tags.occ_percent::total     0.024956                      
system.cpu.l2cache.tags.occ_task_id_blocks::1024         1294                      
system.cpu.l2cache.tags.age_task_id_blocks_1024::0           71                      
system.cpu.l2cache.tags.age_task_id_blocks_1024::1          841                      
system.cpu.l2cache.tags.age_task_id_blocks_1024::2          382                      
system.cpu.l2cache.tags.occ_task_id_percent::1024     0.039490                      
system.cpu.l2cache.tags.tag_accesses            12214                      
system.cpu.l2cache.tags.data_accesses           12214                      
system.cpu.l2cache.pwrStateResidencyTicks::UNDEFINED    116890500                      
system.cpu.l2cache.WritebackClean_hits::writebacks           63                      
system.cpu.l2cache.WritebackClean_hits::total           63                      
system.cpu.l2cache.ReadCleanReq_hits::cpu.inst            7                      
system.cpu.l2cache.ReadCleanReq_hits::total            7                      
system.cpu.l2cache.demand_hits::cpu.inst            7                      
system.cpu.l2cache.demand_hits::total               7                      
system.cpu.l2cache.overall_hits::cpu.inst            7                      
system.cpu.l2cache.overall_hits::total              7                      
system.cpu.l2cache.ReadExReq_misses::cpu.data          222                      
system.cpu.l2cache.ReadExReq_misses::total          222                      
system.cpu.l2cache.ReadCleanReq_misses::cpu.inst          827                      
system.cpu.l2cache.ReadCleanReq_misses::total          827                      
system.cpu.l2cache.ReadSharedReq_misses::cpu.data          246                      
system.cpu.l2cache.ReadSharedReq_misses::total          246                      
system.cpu.l2cache.demand_misses::cpu.inst          827                      
system.cpu.l2cache.demand_misses::cpu.data          468                      
system.cpu.l2cache.demand_misses::total          1295                      
system.cpu.l2cache.overall_misses::cpu.inst          827                      
system.cpu.l2cache.overall_misses::cpu.data          468                      
system.cpu.l2cache.overall_misses::total         1295                      
system.cpu.l2cache.ReadExReq_miss_latency::cpu.data     18576500                      
system.cpu.l2cache.ReadExReq_miss_latency::total     18576500                      
system.cpu.l2cache.ReadCleanReq_miss_latency::cpu.inst     70607000                      
system.cpu.l2cache.ReadCleanReq_miss_latency::total     70607000                      
system.cpu.l2cache.ReadSharedReq_miss_latency::cpu.data     21540000                      
system.cpu.l2cache.ReadSharedReq_miss_latency::total     21540000                      
system.cpu.l2cache.demand_miss_latency::cpu.inst     70607000                      
system.cpu.l2cache.demand_miss_latency::cpu.data     40116500                      
system.cpu.l2cache.demand_miss_latency::total    110723500                      
system.cpu.l2cache.overall_miss_latency::cpu.inst     70607000                      
system.cpu.l2cache.overall_miss_latency::cpu.data     40116500                      
system.cpu.l2cache.overall_miss_latency::total    110723500                      
system.cpu.l2cache.WritebackClean_accesses::writebacks           63                      
system.cpu.l2cache.WritebackClean_accesses::total           63                      
system.cpu.l2cache.ReadExReq_accesses::cpu.data          222                      
system.cpu.l2cache.ReadExReq_accesses::total          222                      
system.cpu.l2cache.ReadCleanReq_accesses::cpu.inst          834                      
system.cpu.l2cache.ReadCleanReq_accesses::total          834                      
system.cpu.l2cache.ReadSharedReq_accesses::cpu.data          246                      
system.cpu.l2cache.ReadSharedReq_accesses::total          246                      
system.cpu.l2cache.demand_accesses::cpu.inst          834                      
system.cpu.l2cache.demand_accesses::cpu.data          468                      
system.cpu.l2cache.demand_accesses::total         1302                      
system.cpu.l2cache.overall_accesses::cpu.inst          834                      
system.cpu.l2cache.overall_accesses::cpu.data          468                      
system.cpu.l2cache.overall_accesses::total         1302                      
system.cpu.l2cache.ReadExReq_miss_rate::cpu.data            1                      
system.cpu.l2cache.ReadExReq_miss_rate::total            1                      
system.cpu.l2cache.ReadCleanReq_miss_rate::cpu.inst     0.991607                      
system.cpu.l2cache.ReadCleanReq_miss_rate::total     0.991607                      
system.cpu.l2cache.ReadSharedReq_miss_rate::cpu.data            1                      
system.cpu.l2cache.ReadSharedReq_miss_rate::total            1                      
system.cpu.l2cache.demand_miss_rate::cpu.inst     0.991607                      
system.cpu.l2cache.demand_miss_rate::cpu.data            1                      
system.cpu.l2cache.demand_miss_rate::total     0.994624                      
system.cpu.l2cache.overall_miss_rate::cpu.inst     0.991607                      
system.cpu.l2cache.overall_miss_rate::cpu.data            1                      
system.cpu.l2cache.overall_miss_rate::total     0.994624                      
system.cpu.l2cache.ReadExReq_avg_miss_latency::cpu.data 83677.927928                      
system.cpu.l2cache.ReadExReq_avg_miss_latency::total 83677.927928                      
system.cpu.l2cache.ReadCleanReq_avg_miss_latency::cpu.inst 85377.267231                      
system.cpu.l2cache.ReadCleanReq_avg_miss_latency::total 85377.267231                      
system.cpu.l2cache.ReadSharedReq_avg_miss_latency::cpu.data 87560.975610                      
system.cpu.l2cache.ReadSharedReq_avg_miss_latency::total 87560.975610                      
system.cpu.l2cache.demand_avg_miss_latency::cpu.inst 85377.267231                      
system.cpu.l2cache.demand_avg_miss_latency::cpu.data 85719.017094                      
system.cpu.l2cache.demand_avg_miss_latency::total 85500.772201                      
system.cpu.l2cache.overall_avg_miss_latency::cpu.inst 85377.267231                      
system.cpu.l2cache.overall_avg_miss_latency::cpu.data 85719.017094                      
system.cpu.l2cache.overall_avg_miss_latency::total 85500.772201                      
system.cpu.l2cache.blocked_cycles::no_mshrs            0                      
system.cpu.l2cache.blocked_cycles::no_targets            0                      
system.cpu.l2cache.blocked::no_mshrs                0                      
system.cpu.l2cache.blocked::no_targets              0                      
system.cpu.l2cache.avg_blocked_cycles::no_mshrs          nan                      
system.cpu.l2cache.avg_blocked_cycles::no_targets          nan                      
system.cpu.l2cache.ReadExReq_mshr_misses::cpu.data          222                      
system.cpu.l2cache.ReadExReq_mshr_misses::total          222                      
system.cpu.l2cache.ReadCleanReq_mshr_misses::cpu.inst          827                      
system.cpu.l2cache.ReadCleanReq_mshr_misses::total          827                      
system.cpu.l2cache.ReadSharedReq_mshr_misses::cpu.data          246                      
system.cpu.l2cache.ReadSharedReq_mshr_misses::total          246                      
system.cpu.l2cache.demand_mshr_misses::cpu.inst          827                      
system.cpu.l2cache.demand_mshr_misses::cpu.data          468                      
system.cpu.l2cache.demand_mshr_misses::total         1295                      
system.cpu.l2cache.overall_mshr_misses::cpu.inst          827                      
system.cpu.l2cache.overall_mshr_misses::cpu.data          468                      
system.cpu.l2cache.overall_mshr_misses::total         1295                      
system.cpu.l2cache.ReadExReq_mshr_miss_latency::cpu.data     16356500                      
system.cpu.l2cache.ReadExReq_mshr_miss_latency::total     16356500                      
system.cpu.l2cache.ReadCleanReq_mshr_miss_latency::cpu.inst     62347000                      
system.cpu.l2cache.ReadCleanReq_mshr_miss_latency::total     62347000                      
system.cpu.l2cache.ReadSharedReq_mshr_miss_latency::cpu.data     19080000                      
system.cpu.l2cache.ReadSharedReq_mshr_miss_latency::total     19080000                      
system.cpu.l2cache.demand_mshr_miss_latency::cpu.inst     62347000                      
system.cpu.l2cache.demand_mshr_miss_latency::cpu.data     35436500                      
system.cpu.l2cache.demand_mshr_miss_latency::total     97783500                      
system.cpu.l2cache.overall_mshr_miss_latency::cpu.inst     62347000                      
system.cpu.l2cache.overall_mshr_miss_latency::cpu.data     35436500                      
system.cpu.l2cache.overall_mshr_miss_latency::total     97783500                      
system.cpu.l2cache.ReadExReq_mshr_miss_rate::cpu.data            1                      
system.cpu.l2cache.ReadExReq_mshr_miss_rate::total            1                      
system.cpu.l2cache.ReadCleanReq_mshr_miss_rate::cpu.inst     0.991607                      
system.cpu.l2cache.ReadCleanReq_mshr_miss_rate::total     0.991607                      
system.cpu.l2cache.ReadSharedReq_mshr_miss_rate::cpu.data            1                      
system.cpu.l2cache.ReadSharedReq_mshr_miss_rate::total            1                      
system.cpu.l2cache.demand_mshr_miss_rate::cpu.inst     0.991607                      
system.cpu.l2cache.demand_mshr_miss_rate::cpu.data            1                      
system.cpu.l2cache.demand_mshr_miss_rate::total     0.994624                      
system.cpu.l2cache.overall_mshr_miss_rate::cpu.inst     0.991607                      
system.cpu.l2cache.overall_mshr_miss_rate::cpu.data            1                      
system.cpu.l2cache.overall_mshr_miss_rate::total     0.994624                      
system.cpu.l2cache.ReadExReq_avg_mshr_miss_latency::cpu.data 73677.927928                      
system.cpu.l2cache.ReadExReq_avg_mshr_miss_latency::total 73677.927928                      
system.cpu.l2cache.ReadCleanReq_avg_mshr_miss_latency::cpu.inst 75389.359129                      
system.cpu.l2cache.ReadCleanReq_avg_mshr_miss_latency::total 75389.359129                      
system.cpu.l2cache.ReadSharedReq_avg_mshr_miss_latency::cpu.data 77560.975610                      
system.cpu.l2cache.ReadSharedReq_avg_mshr_miss_latency::total 77560.975610                      
system.cpu.l2cache.demand_avg_mshr_miss_latency::cpu.inst 75389.359129                      
system.cpu.l2cache.demand_avg_mshr_miss_latency::cpu.data 75719.017094                      
system.cpu.l2cache.demand_avg_mshr_miss_latency::total 75508.494208                      
system.cpu.l2cache.overall_avg_mshr_miss_latency::cpu.inst 75389.359129                      
system.cpu.l2cache.overall_avg_mshr_miss_latency::cpu.data 75719.017094                      
system.cpu.l2cache.overall_avg_mshr_miss_latency::total 75508.494208                      
system.cpu.toL2Bus.snoop_filter.tot_requests         1365                      
system.cpu.toL2Bus.snoop_filter.hit_single_requests           63                      
system.cpu.toL2Bus.snoop_filter.hit_multi_requests            0                      
system.cpu.toL2Bus.snoop_filter.tot_snoops            0                      
system.cpu.toL2Bus.snoop_filter.hit_single_snoops            0                      
system.cpu.toL2Bus.snoop_filter.hit_multi_snoops            0                      
system.cpu.toL2Bus.pwrStateResidencyTicks::UNDEFINED    116890500                      
system.cpu.toL2Bus.trans_dist::ReadResp          1079                      
system.cpu.toL2Bus.trans_dist::WritebackClean           63                      
system.cpu.toL2Bus.trans_dist::ReadExReq          222                      
system.cpu.toL2Bus.trans_dist::ReadExResp          222                      
system.cpu.toL2Bus.trans_dist::ReadCleanReq          834                      
system.cpu.toL2Bus.trans_dist::ReadSharedReq          246                      
system.cpu.toL2Bus.pkt_count_system.cpu.icache.mem_side::system.cpu.l2cache.cpu_side         1730                      
system.cpu.toL2Bus.pkt_count_system.cpu.dcache.mem_side::system.cpu.l2cache.cpu_side          936                      
system.cpu.toL2Bus.pkt_count::total              2666                      
system.cpu.toL2Bus.pkt_size_system.cpu.icache.mem_side::system.cpu.l2cache.cpu_side        57344                      
system.cpu.toL2Bus.pkt_size_system.cpu.dcache.mem_side::system.cpu.l2cache.cpu_side        29952                      
system.cpu.toL2Bus.pkt_size::total              87296                      
system.cpu.toL2Bus.snoops                           0                      
system.cpu.toL2Bus.snoopTraffic                     0                      
system.cpu.toL2Bus.snoop_fanout::samples         1302                      
system.cpu.toL2Bus.snoop_fanout::mean               0                      
system.cpu.toL2Bus.snoop_fanout::stdev              0                      
system.cpu.toL2Bus.snoop_fanout::underflows            0      0.00%      0.00%
system.cpu.toL2Bus.snoop_fanout::0               1302    100.00%    100.00%
system.cpu.toL2Bus.snoop_fanout::1                  0      0.00%    100.00%
system.cpu.toL2Bus.snoop_fanout::2                  0      0.00%    100.00%
system.cpu.toL2Bus.snoop_fanout::overflows            0      0.00%    100.00%
system.cpu.toL2Bus.snoop_fanout::min_value            0                      
system.cpu.toL2Bus.snoop_fanout::max_value            0                      
system.cpu.toL2Bus.snoop_fanout::total           1302                      
system.cpu.toL2Bus.reqLayer0.occupancy         745500                      
system.cpu.toL2Bus.reqLayer0.utilization          0.6                      
system.cpu.toL2Bus.respLayer0.occupancy       1249500                      
system.cpu.toL2Bus.respLayer0.utilization          1.1                      
system.cpu.toL2Bus.respLayer1.occupancy        702000                      
system.cpu.toL2Bus.respLayer1.utilization          0.6                      
system.membus.snoop_filter.tot_requests          1295                      
system.membus.snoop_filter.hit_single_requests            0                      
system.membus.snoop_filter.hit_multi_requests            0                      
system.membus.snoop_filter.tot_snoops               0                      
system.membus.snoop_filter.hit_single_snoops            0                      
system.membus.snoop_filter.hit_multi_snoops            0                      
system.membus.pwrStateResidencyTicks::UNDEFINED    116890500                      
system.membus.trans_dist::ReadResp               1072                      
system.membus.trans_dist::ReadExReq               222                      
system.membus.trans_dist::ReadExResp              222                      
system.membus.trans_dist::ReadSharedReq          1073                      
system.membus.pkt_count_system.cpu.l2cache.mem_side::system.physmem.port         2589                      
system.membus.pkt_count::total                   2589                      
system.membus.pkt_size_system.cpu.l2cache.mem_side::system.physmem.port        82816                      
system.membus.pkt_size::total                   82816                      
system.membus.snoops                                0                      
system.membus.snoopTraffic                          0                      
system.membus.snoop_fanout::samples              1295                      
system.membus.snoop_fanout::mean                    0                      
system.membus.snoop_fanout::stdev                   0                      
system.membus.snoop_fanout::underflows              0      0.00%      0.00%
system.membus.snoop_fanout::0                    1295    100.00%    100.00%
system.membus.snoop_fanout::1                       0      0.00%    100.00%
system.membus.snoop_fanout::overflows               0      0.00%    100.00%
system.membus.snoop_fanout::min_value               0                      
system.membus.snoop_fanout::max_value               0                      
system.membus.snoop_fanout::total                1295                      
system.membus.reqLayer0.occupancy             1580500                      
system.membus.reqLayer0.utilization               1.4                      
system.membus.respLayer1.occupancy            6861000                      
system.membus.respLayer1.utilization              5.9                      

---------- End Simulation Statistics   ----------
