
---------- Begin Simulation Statistics ----------
sim_seconds                                  0.000195                      
sim_ticks                                   195799500                      
final_tick                                  195799500                      
sim_freq                                 1000000000000                      
host_inst_rate                                 136731                      
host_op_rate                                   137040                      
host_tick_rate                              203739537                      
host_mem_usage                                 401932                      
host_seconds                                     0.96                      
sim_insts                                      131397                      
sim_ops                                        131697                      
system.voltage_domain.voltage                       1                      
system.clk_domain.clock                          1000                      
system.physmem.pwrStateResidencyTicks::UNDEFINED    195799500                      
system.physmem.bytes_read::cpu.inst             63232                      
system.physmem.bytes_read::cpu.data             29760                      
system.physmem.bytes_read::total                92992                      
system.physmem.bytes_inst_read::cpu.inst        63232                      
system.physmem.bytes_inst_read::total           63232                      
system.physmem.num_reads::cpu.inst                988                      
system.physmem.num_reads::cpu.data                465                      
system.physmem.num_reads::total                  1453                      
system.physmem.bw_read::cpu.inst            322942601                      
system.physmem.bw_read::cpu.data            151992216                      
system.physmem.bw_read::total               474934818                      
system.physmem.bw_inst_read::cpu.inst       322942601                      
system.physmem.bw_inst_read::total          322942601                      
system.physmem.bw_total::cpu.inst           322942601                      
system.physmem.bw_total::cpu.data           151992216                      
system.physmem.bw_total::total              474934818                      
system.physmem.readReqs                          1453                      
system.physmem.writeReqs                            0                      
system.physmem.readBursts                        1453                      
system.physmem.writeBursts                          0                      
system.physmem.bytesReadDRAM                    92992                      
system.physmem.bytesReadWrQ                         0                      
system.physmem.bytesWritten                         0                      
system.physmem.bytesReadSys                     92992                      
system.physmem.bytesWrittenSys                      0                      
system.physmem.servicedByWrQ                        0                      
system.physmem.mergedWrBursts                       0                      
system.physmem.neitherReadNorWriteReqs              0                      
system.physmem.perBankRdBursts::0                 117                      
system.physmem.perBankRdBursts::1                 145                      
system.physmem.perBankRdBursts::2                 103                      
system.physmem.perBankRdBursts::3                 117                      
system.physmem.perBankRdBursts::4                  49                      
system.physmem.perBankRdBursts::5                  65                      
system.physmem.perBankRdBursts::6                  49                      
system.physmem.perBankRdBursts::7                  24                      
system.physmem.perBankRdBursts::8                  76                      
system.physmem.perBankRdBursts::9                 113                      
system.physmem.perBankRdBursts::10                175                      
system.physmem.perBankRdBursts::11                146                      
system.physmem.perBankRdBursts::12                109                      
system.physmem.perBankRdBursts::13                 47                      
system.physmem.perBankRdBursts::14                 52                      
system.physmem.perBankRdBursts::15                 66                      
system.physmem.perBankWrBursts::0                   0                      
system.physmem.perBankWrBursts::1                   0                      
system.physmem.perBankWrBursts::2                   0                      
system.physmem.perBankWrBursts::3                   0                      
system.physmem.perBankWrBursts::4                   0                      
system.physmem.perBankWrBursts::5                   0                      
system.physmem.perBankWrBursts::6                   0                      
system.physmem.perBankWrBursts::7                   0                      
system.physmem.perBankWrBursts::8                   0                      
system.physmem.perBankWrBursts::9                   0                      
system.physmem.perBankWrBursts::10                  0                      
system.physmem.perBankWrBursts::11                  0                      
system.physmem.perBankWrBursts::12                  0                      
system.physmem.perBankWrBursts::13                  0                      
system.physmem.perBankWrBursts::14                  0                      
system.physmem.perBankWrBursts::15                  0                      
system.physmem.numRdRetry                           0                      
system.physmem.numWrRetry                           0                      
system.physmem.totGap                       195703000                      
system.physmem.readPktSize::0                       0                      
system.physmem.readPktSize::1                       0                      
system.physmem.readPktSize::2                       0                      
system.physmem.readPktSize::3                       0                      
system.physmem.readPktSize::4                       0                      
system.physmem.readPktSize::5                       0                      
system.physmem.readPktSize::6                    1453                      
system.physmem.writePktSize::0                      0                      
system.physmem.writePktSize::1                      0                      
system.physmem.writePktSize::2                      0                      
system.physmem.writePktSize::3                      0                      
system.physmem.writePktSize::4                      0                      
system.physmem.writePktSize::5                      0                      
system.physmem.writePktSize::6                      0                      
system.physmem.rdQLenPdf::0                      1232                      
system.physmem.rdQLenPdf::1                       204                      
system.physmem.rdQLenPdf::2                        17                      
system.physmem.rdQLenPdf::3                         0                      
system.physmem.rdQLenPdf::4                         0                      
system.physmem.rdQLenPdf::5                         0                      
system.physmem.rdQLenPdf::6                         0                      
system.physmem.rdQLenPdf::7                         0                      
system.physmem.rdQLenPdf::8                         0                      
system.physmem.rdQLenPdf::9                         0                      
system.physmem.rdQLenPdf::10                        0                      
system.physmem.rdQLenPdf::11                        0                      
system.physmem.rdQLenPdf::12                        0                      
system.physmem.rdQLenPdf::13                        0                      
system.physmem.rdQLenPdf::14                        0                      
system.physmem.rdQLenPdf::15                        0                      
system.physmem.rdQLenPdf::16                        0                      
system.physmem.rdQLenPdf::17                        0                      
system.physmem.rdQLenPdf::18                        0                      
system.physmem.rdQLenPdf::19                        0                      
system.physmem.rdQLenPdf::20                        0                      
system.physmem.rdQLenPdf::21                        0                      
system.physmem.rdQLenPdf::22                        0                      
system.physmem.rdQLenPdf::23                        0                      
system.physmem.rdQLenPdf::24                        0                      
system.physmem.rdQLenPdf::25                        0                      
system.physmem.rdQLenPdf::26                        0                      
system.physmem.rdQLenPdf::27                        0                      
system.physmem.rdQLenPdf::28                        0                      
system.physmem.rdQLenPdf::29                        0                      
system.physmem.rdQLenPdf::30                        0                      
system.physmem.rdQLenPdf::31                        0                      
system.physmem.wrQLenPdf::0                         0                      
system.physmem.wrQLenPdf::1                         0                      
system.physmem.wrQLenPdf::2                         0                      
system.physmem.wrQLenPdf::3                         0                      
system.physmem.wrQLenPdf::4                         0                      
system.physmem.wrQLenPdf::5                         0                      
system.physmem.wrQLenPdf::6                         0                      
system.physmem.wrQLenPdf::7                         0                      
system.physmem.wrQLenPdf::8                         0                      
system.physmem.wrQLenPdf::9                         0                      
system.physmem.wrQLenPdf::10                        0                      
system.physmem.wrQLenPdf::11                        0                      
system.physmem.wrQLenPdf::12                        0                      
system.physmem.wrQLenPdf::13                        0                      
system.physmem.wrQLenPdf::14                        0                      
system.physmem.wrQLenPdf::15                        0                      
system.physmem.wrQLenPdf::16                        0                      
system.physmem.wrQLenPdf::17                        0                      
system.physmem.wrQLenPdf::18                        0                      
system.physmem.wrQLenPdf::19                        0                      
system.physmem.wrQLenPdf::20                        0                      
system.physmem.wrQLenPdf::21                        0                      
system.physmem.wrQLenPdf::22                        0                      
system.physmem.wrQLenPdf::23                        0                      
system.physmem.wrQLenPdf::24                        0                      
system.physmem.wrQLenPdf::25                        0                      
system.physmem.wrQLenPdf::26                        0                      
system.physmem.wrQLenPdf::27                        0                      
system.physmem.wrQLenPdf::28                        0                      
system.physmem.wrQLenPdf::29                        0                      
system.physmem.wrQLenPdf::30                        0                      
system.physmem.wrQLenPdf::31                        0                      
system.physmem.wrQLenPdf::32                        0                      
system.physmem.wrQLenPdf::33                        0                      
system.physmem.wrQLenPdf::34                        0                      
system.physmem.wrQLenPdf::35                        0                      
system.physmem.wrQLenPdf::36                        0                      
system.physmem.wrQLenPdf::37                        0                      
system.physmem.wrQLenPdf::38                        0                      
system.physmem.wrQLenPdf::39                        0                      
system.physmem.wrQLenPdf::40                        0                      
system.physmem.wrQLenPdf::41                        0                      
system.physmem.wrQLenPdf::42                        0                      
system.physmem.wrQLenPdf::43                        0                      
system.physmem.wrQLenPdf::44                        0                      
system.physmem.wrQLenPdf::45                        0                      
system.physmem.wrQLenPdf::46                        0                      
system.physmem.wrQLenPdf::47                        0                      
system.physmem.wrQLenPdf::48                        0                      
system.physmem.wrQLenPdf::49                        0                      
system.physmem.wrQLenPdf::50                        0                      
system.physmem.wrQLenPdf::51                        0                      
system.physmem.wrQLenPdf::52                        0                      
system.physmem.wrQLenPdf::53                        0                      
system.physmem.wrQLenPdf::54                        0                      
system.physmem.wrQLenPdf::55                        0                      
system.physmem.wrQLenPdf::56                        0                      
system.physmem.wrQLenPdf::57                        0                      
system.physmem.wrQLenPdf::58                        0                      
system.physmem.wrQLenPdf::59                        0                      
system.physmem.wrQLenPdf::60                        0                      
system.physmem.wrQLenPdf::61                        0                      
system.physmem.wrQLenPdf::62                        0                      
system.physmem.wrQLenPdf::63                        0                      
system.physmem.bytesPerActivate::samples          303                      
system.physmem.bytesPerActivate::mean      305.003300                      
system.physmem.bytesPerActivate::gmean     203.725905                      
system.physmem.bytesPerActivate::stdev     269.884737                      
system.physmem.bytesPerActivate::0-127             89     29.37%     29.37%
system.physmem.bytesPerActivate::128-255           67     22.11%     51.48%
system.physmem.bytesPerActivate::256-383           46     15.18%     66.66%
system.physmem.bytesPerActivate::384-511           34     11.22%     77.88%
system.physmem.bytesPerActivate::512-639           23      7.59%     85.47%
system.physmem.bytesPerActivate::640-767           15      4.95%     90.42%
system.physmem.bytesPerActivate::768-895            9      2.97%     93.39%
system.physmem.bytesPerActivate::896-1023            6      1.98%     95.37%
system.physmem.bytesPerActivate::1024-1151           14      4.62%     99.99%
system.physmem.bytesPerActivate::total            303                      
system.physmem.totQLat                       19835250                      
system.physmem.totMemAccLat                  47079000                      
system.physmem.totBusLat                      7265000                      
system.physmem.avgQLat                       13651.23                      
system.physmem.avgBusLat                      5000.00                      
system.physmem.avgMemAccLat                  32401.23                      
system.physmem.avgRdBW                         474.93                      
system.physmem.avgWrBW                           0.00                      
system.physmem.avgRdBWSys                      474.93                      
system.physmem.avgWrBWSys                        0.00                      
system.physmem.peakBW                        12800.00                      
system.physmem.busUtil                           3.71                      
system.physmem.busUtilRead                       3.71                      
system.physmem.busUtilWrite                      0.00                      
system.physmem.avgRdQLen                         1.14                      
system.physmem.avgWrQLen                         0.00                      
system.physmem.readRowHits                       1146                      
system.physmem.writeRowHits                         0                      
system.physmem.readRowHitRate                   78.87                      
system.physmem.writeRowHitRate                    nan                      
system.physmem.avgGap                       134688.91                      
system.physmem.pageHitRate                      78.87                      
system.physmem_0.actEnergy                     906780                      
system.physmem_0.preEnergy                     478170                      
system.physmem_0.readEnergy                   4776660                      
system.physmem_0.writeEnergy                        0                      
system.physmem_0.refreshEnergy           15366000.000000                      
system.physmem_0.actBackEnergy               12138150                      
system.physmem_0.preBackEnergy                 330720                      
system.physmem_0.actPowerDownEnergy          70426350                      
system.physmem_0.prePowerDownEnergy           5328480                      
system.physmem_0.selfRefreshEnergy                  0                      
system.physmem_0.totalEnergy                109751310                      
system.physmem_0.averagePower              560.529061                      
system.physmem_0.totalIdleTime              168300250                      
system.physmem_0.memoryStateTime::IDLE         144000                      
system.physmem_0.memoryStateTime::REF         6500000                      
system.physmem_0.memoryStateTime::SREF              0                      
system.physmem_0.memoryStateTime::PRE_PDN     13875250                      
system.physmem_0.memoryStateTime::ACT        20809250                      
system.physmem_0.memoryStateTime::ACT_PDN    154471000                      
system.physmem_1.actEnergy                    1285200                      
system.physmem_1.preEnergy                     671715                      
system.physmem_1.readEnergy                   5597760                      
system.physmem_1.writeEnergy                        0                      
system.physmem_1.refreshEnergy           15366000.000000                      
system.physmem_1.actBackEnergy               12933870                      
system.physmem_1.preBackEnergy                 373440                      
system.physmem_1.actPowerDownEnergy          70267320                      
system.physmem_1.prePowerDownEnergy           4749600                      
system.physmem_1.selfRefreshEnergy                  0                      
system.physmem_1.totalEnergy                111244905                      
system.physmem_1.averagePower              568.157247                      
system.physmem_1.totalIdleTime              166281750                      
system.physmem_1.memoryStateTime::IDLE         241500                      
system.physmem_1.memoryStateTime::REF         6500000                      
system.physmem_1.memoryStateTime::SREF              0                      
system.physmem_1.memoryStateTime::PRE_PDN     12364750                      
system.physmem_1.memoryStateTime::ACT        22600750                      
system.physmem_1.memoryStateTime::ACT_PDN    154092500                      
system.pwrStateResidencyTicks::UNDEFINED    195799500                      
system.cpu.branchPred.lookups                   38236                      
system.cpu.branchPred.condPredicted             25921                      
system.cpu.branchPred.condIncorrect              3341                      
system.cpu.branchPred.BTBLookups                28355                      
system.cpu.branchPred.BTBHits                   13143                      
system.cpu.branchPred.BTBCorrect                    0                      
system.cpu.branchPred.BTBHitPct             46.351613                      
system.cpu.branchPred.usedRAS                       0                      
system.cpu.branchPred.RASInCorrect                  0                      
system.cpu.branchPred.indirectLookups            8118                      
system.cpu.branchPred.indirectHits               4298                      
system.cpu.branchPred.indirectMisses             3820                      
system.cpu.branchPredindirectMispredicted         1649                      
system.cpu_clk_domain.clock                       500                      
system.cpu.dtb.read_hits                            0                      
system.cpu.dtb.read_misses                          0                      
system.cpu.dtb.read_accesses                        0                      
system.cpu.dtb.write_hits                           0                      
system.cpu.dtb.write_misses                         0                      
system.cpu.dtb.write_accesses                       0                      
system.cpu.dtb.hits                                 0                      
system.cpu.dtb.misses                               0                      
system.cpu.dtb.accesses                             0                      
system.cpu.itb.read_hits                            0                      
system.cpu.itb.read_misses                          0                      
system.cpu.itb.read_accesses                        0                      
system.cpu.itb.write_hits                           0                      
system.cpu.itb.write_misses                         0                      
system.cpu.itb.write_accesses                       0                      
system.cpu.itb.hits                                 0                      
system.cpu.itb.misses                               0                      
system.cpu.itb.accesses                             0                      
system.cpu.workload.numSyscalls                    62                      
system.cpu.pwrStateResidencyTicks::ON       195799500                      
system.cpu.numCycles                           391599                      
system.cpu.numWorkItemsStarted                      0                      
system.cpu.numWorkItemsCompleted                    0                      
system.cpu.committedInsts                      131397                      
system.cpu.committedOps                        131697                      
system.cpu.discardedOps                          9124                      
system.cpu.numFetchSuspends                         0                      
system.cpu.cpi                               2.980273                      
system.cpu.ipc                               0.335539                      
system.cpu.op_class_0::No_OpClass                  66      0.05%      0.05%
system.cpu.op_class_0::IntAlu                   79604     60.44%     60.49%
system.cpu.op_class_0::IntMult                    164      0.12%     60.61%
system.cpu.op_class_0::IntDiv                       4      0.00%     60.62%
system.cpu.op_class_0::FloatAdd                     0      0.00%     60.62%
system.cpu.op_class_0::FloatCmp                     3      0.00%     60.62%
system.cpu.op_class_0::FloatCvt                     2      0.00%     60.62%
system.cpu.op_class_0::FloatMult                    0      0.00%     60.62%
system.cpu.op_class_0::FloatMultAcc                 0      0.00%     60.62%
system.cpu.op_class_0::FloatDiv                     0      0.00%     60.62%
system.cpu.op_class_0::FloatMisc                    2      0.00%     60.62%
system.cpu.op_class_0::FloatSqrt                    0      0.00%     60.62%
system.cpu.op_class_0::SimdAdd                      0      0.00%     60.62%
system.cpu.op_class_0::SimdAddAcc                   0      0.00%     60.62%
system.cpu.op_class_0::SimdAlu                      0      0.00%     60.62%
system.cpu.op_class_0::SimdCmp                      0      0.00%     60.62%
system.cpu.op_class_0::SimdCvt                      0      0.00%     60.62%
system.cpu.op_class_0::SimdMisc                     0      0.00%     60.62%
system.cpu.op_class_0::SimdMult                     0      0.00%     60.62%
system.cpu.op_class_0::SimdMultAcc                  0      0.00%     60.62%
system.cpu.op_class_0::SimdShift                    0      0.00%     60.62%
system.cpu.op_class_0::SimdShiftAcc                 0      0.00%     60.62%
system.cpu.op_class_0::SimdSqrt                     0      0.00%     60.62%
system.cpu.op_class_0::SimdFloatAdd                 0      0.00%     60.62%
system.cpu.op_class_0::SimdFloatAlu                 0      0.00%     60.62%
system.cpu.op_class_0::SimdFloatCmp                 0      0.00%     60.62%
system.cpu.op_class_0::SimdFloatCvt                 0      0.00%     60.62%
system.cpu.op_class_0::SimdFloatDiv                 0      0.00%     60.62%
system.cpu.op_class_0::SimdFloatMisc                0      0.00%     60.62%
system.cpu.op_class_0::SimdFloatMult                0      0.00%     60.62%
system.cpu.op_class_0::SimdFloatMultAcc             0      0.00%     60.62%
system.cpu.op_class_0::SimdFloatSqrt                0      0.00%     60.62%
system.cpu.op_class_0::MemRead                  31655     24.03%     84.66%
system.cpu.op_class_0::MemWrite                 20164     15.31%     99.97%
system.cpu.op_class_0::FloatMemRead                14      0.01%     99.98%
system.cpu.op_class_0::FloatMemWrite               19      0.01%     99.99%
system.cpu.op_class_0::IprAccess                    0      0.00%     99.99%
system.cpu.op_class_0::InstPrefetch                 0      0.00%     99.99%
system.cpu.op_class_0::total                   131697                      
system.cpu.tickCycles                          195184                      
system.cpu.idleCycles                          196415                      
system.cpu.fetch2.int_instructions             105714                      
system.cpu.fetch2.fp_instructions                  18                      
system.cpu.fetch2.vec_instructions                  0                      
system.cpu.fetch2.load_instructions             39739                      
system.cpu.fetch2.store_instructions            25221                      
system.cpu.dcache.tags.pwrStateResidencyTicks::UNDEFINED    195799500                      
system.cpu.dcache.tags.replacements                 0                      
system.cpu.dcache.tags.tagsinuse           319.602903                      
system.cpu.dcache.tags.total_refs               52652                      
system.cpu.dcache.tags.sampled_refs               466                      
system.cpu.dcache.tags.avg_refs            112.987124                      
system.cpu.dcache.tags.warmup_cycle            177500                      
system.cpu.dcache.tags.occ_blocks::cpu.data   319.602903                      
system.cpu.dcache.tags.occ_percent::cpu.data     0.078028                      
system.cpu.dcache.tags.occ_percent::total     0.078028                      
system.cpu.dcache.tags.occ_task_id_blocks::1024          466                      
system.cpu.dcache.tags.age_task_id_blocks_1024::0           14                      
system.cpu.dcache.tags.age_task_id_blocks_1024::1          108                      
system.cpu.dcache.tags.age_task_id_blocks_1024::2          344                      
system.cpu.dcache.tags.occ_task_id_percent::1024     0.113769                      
system.cpu.dcache.tags.tag_accesses            107032                      
system.cpu.dcache.tags.data_accesses           107032                      
system.cpu.dcache.pwrStateResidencyTicks::UNDEFINED    195799500                      
system.cpu.dcache.ReadReq_hits::cpu.data        32520                      
system.cpu.dcache.ReadReq_hits::total           32520                      
system.cpu.dcache.WriteReq_hits::cpu.data        19464                      
system.cpu.dcache.WriteReq_hits::total          19464                      
system.cpu.dcache.LoadLockedReq_hits::cpu.data          334                      
system.cpu.dcache.LoadLockedReq_hits::total          334                      
system.cpu.dcache.StoreCondReq_hits::cpu.data          334                      
system.cpu.dcache.StoreCondReq_hits::total          334                      
system.cpu.dcache.demand_hits::cpu.data         51984                      
system.cpu.dcache.demand_hits::total            51984                      
system.cpu.dcache.overall_hits::cpu.data        51984                      
system.cpu.dcache.overall_hits::total           51984                      
system.cpu.dcache.ReadReq_misses::cpu.data          246                      
system.cpu.dcache.ReadReq_misses::total           246                      
system.cpu.dcache.WriteReq_misses::cpu.data          385                      
system.cpu.dcache.WriteReq_misses::total          385                      
system.cpu.dcache.demand_misses::cpu.data          631                      
system.cpu.dcache.demand_misses::total            631                      
system.cpu.dcache.overall_misses::cpu.data          631                      
system.cpu.dcache.overall_misses::total           631                      
system.cpu.dcache.ReadReq_miss_latency::cpu.data     22194000                      
system.cpu.dcache.ReadReq_miss_latency::total     22194000                      
system.cpu.dcache.WriteReq_miss_latency::cpu.data     31404500                      
system.cpu.dcache.WriteReq_miss_latency::total     31404500                      
system.cpu.dcache.demand_miss_latency::cpu.data     53598500                      
system.cpu.dcache.demand_miss_latency::total     53598500                      
system.cpu.dcache.overall_miss_latency::cpu.data     53598500                      
system.cpu.dcache.overall_miss_latency::total     53598500                      
system.cpu.dcache.ReadReq_accesses::cpu.data        32766                      
system.cpu.dcache.ReadReq_accesses::total        32766                      
system.cpu.dcache.WriteReq_accesses::cpu.data        19849                      
system.cpu.dcache.WriteReq_accesses::total        19849                      
system.cpu.dcache.LoadLockedReq_accesses::cpu.data          334                      
system.cpu.dcache.LoadLockedReq_accesses::total          334                      
system.cpu.dcache.StoreCondReq_accesses::cpu.data          334                      
system.cpu.dcache.StoreCondReq_accesses::total          334                      
system.cpu.dcache.demand_accesses::cpu.data        52615                      
system.cpu.dcache.demand_accesses::total        52615                      
system.cpu.dcache.overall_accesses::cpu.data        52615                      
system.cpu.dcache.overall_accesses::total        52615                      
system.cpu.dcache.ReadReq_miss_rate::cpu.data     0.007507                      
system.cpu.dcache.ReadReq_miss_rate::total     0.007507                      
system.cpu.dcache.WriteReq_miss_rate::cpu.data     0.019396                      
system.cpu.dcache.WriteReq_miss_rate::total     0.019396                      
system.cpu.dcache.demand_miss_rate::cpu.data     0.011992                      
system.cpu.dcache.demand_miss_rate::total     0.011992                      
system.cpu.dcache.overall_miss_rate::cpu.data     0.011992                      
system.cpu.dcache.overall_miss_rate::total     0.011992                      
system.cpu.dcache.ReadReq_avg_miss_latency::cpu.data 90219.512195                      
system.cpu.dcache.ReadReq_avg_miss_latency::total 90219.512195                      
system.cpu.dcache.WriteReq_avg_miss_latency::cpu.data 81570.129870                      
system.cpu.dcache.WriteReq_avg_miss_latency::total 81570.129870                      
system.cpu.dcache.demand_avg_miss_latency::cpu.data 84942.155309                      
system.cpu.dcache.demand_avg_miss_latency::total 84942.155309                      
system.cpu.dcache.overall_avg_miss_latency::cpu.data 84942.155309                      
system.cpu.dcache.overall_avg_miss_latency::total 84942.155309                      
system.cpu.dcache.blocked_cycles::no_mshrs            0                      
system.cpu.dcache.blocked_cycles::no_targets            0                      
system.cpu.dcache.blocked::no_mshrs                 0                      
system.cpu.dcache.blocked::no_targets               0                      
system.cpu.dcache.avg_blocked_cycles::no_mshrs          nan                      
system.cpu.dcache.avg_blocked_cycles::no_targets          nan                      
system.cpu.dcache.ReadReq_mshr_hits::cpu.data            1                      
system.cpu.dcache.ReadReq_mshr_hits::total            1                      
system.cpu.dcache.WriteReq_mshr_hits::cpu.data          164                      
system.cpu.dcache.WriteReq_mshr_hits::total          164                      
system.cpu.dcache.demand_mshr_hits::cpu.data          165                      
system.cpu.dcache.demand_mshr_hits::total          165                      
system.cpu.dcache.overall_mshr_hits::cpu.data          165                      
system.cpu.dcache.overall_mshr_hits::total          165                      
system.cpu.dcache.ReadReq_mshr_misses::cpu.data          245                      
system.cpu.dcache.ReadReq_mshr_misses::total          245                      
system.cpu.dcache.WriteReq_mshr_misses::cpu.data          221                      
system.cpu.dcache.WriteReq_mshr_misses::total          221                      
system.cpu.dcache.demand_mshr_misses::cpu.data          466                      
system.cpu.dcache.demand_mshr_misses::total          466                      
system.cpu.dcache.overall_mshr_misses::cpu.data          466                      
system.cpu.dcache.overall_mshr_misses::total          466                      
system.cpu.dcache.ReadReq_mshr_miss_latency::cpu.data     21856500                      
system.cpu.dcache.ReadReq_mshr_miss_latency::total     21856500                      
system.cpu.dcache.WriteReq_mshr_miss_latency::cpu.data     18747500                      
system.cpu.dcache.WriteReq_mshr_miss_latency::total     18747500                      
system.cpu.dcache.demand_mshr_miss_latency::cpu.data     40604000                      
system.cpu.dcache.demand_mshr_miss_latency::total     40604000                      
system.cpu.dcache.overall_mshr_miss_latency::cpu.data     40604000                      
system.cpu.dcache.overall_mshr_miss_latency::total     40604000                      
system.cpu.dcache.ReadReq_mshr_miss_rate::cpu.data     0.007477                      
system.cpu.dcache.ReadReq_mshr_miss_rate::total     0.007477                      
system.cpu.dcache.WriteReq_mshr_miss_rate::cpu.data     0.011134                      
system.cpu.dcache.WriteReq_mshr_miss_rate::total     0.011134                      
system.cpu.dcache.demand_mshr_miss_rate::cpu.data     0.008856                      
system.cpu.dcache.demand_mshr_miss_rate::total     0.008856                      
system.cpu.dcache.overall_mshr_miss_rate::cpu.data     0.008856                      
system.cpu.dcache.overall_mshr_miss_rate::total     0.008856                      
system.cpu.dcache.ReadReq_avg_mshr_miss_latency::cpu.data 89210.204081                      
system.cpu.dcache.ReadReq_avg_mshr_miss_latency::total 89210.204081                      
system.cpu.dcache.WriteReq_avg_mshr_miss_latency::cpu.data 84830.316742                      
system.cpu.dcache.WriteReq_avg_mshr_miss_latency::total 84830.316742                      
system.cpu.dcache.demand_avg_mshr_miss_latency::cpu.data 87133.047210                      
system.cpu.dcache.demand_avg_mshr_miss_latency::total 87133.047210                      
system.cpu.dcache.overall_avg_mshr_miss_latency::cpu.data 87133.047210                      
system.cpu.dcache.overall_avg_mshr_miss_latency::total 87133.047210                      
system.cpu.icache.tags.pwrStateResidencyTicks::UNDEFINED    195799500                      
system.cpu.icache.tags.replacements                96                      
system.cpu.icache.tags.tagsinuse           542.124762                      
system.cpu.icache.tags.total_refs               52569                      
system.cpu.icache.tags.sampled_refs               999                      
system.cpu.icache.tags.avg_refs             52.621621                      
system.cpu.icache.tags.warmup_cycle             87500                      
system.cpu.icache.tags.occ_blocks::cpu.inst   542.124762                      
system.cpu.icache.tags.occ_percent::cpu.inst     0.264709                      
system.cpu.icache.tags.occ_percent::total     0.264709                      
system.cpu.icache.tags.occ_task_id_blocks::1024          903                      
system.cpu.icache.tags.age_task_id_blocks_1024::0           50                      
system.cpu.icache.tags.age_task_id_blocks_1024::1          333                      
system.cpu.icache.tags.age_task_id_blocks_1024::2          520                      
system.cpu.icache.tags.occ_task_id_percent::1024     0.440917                      
system.cpu.icache.tags.tag_accesses            108137                      
system.cpu.icache.tags.data_accesses           108137                      
system.cpu.icache.pwrStateResidencyTicks::UNDEFINED    195799500                      
system.cpu.icache.ReadReq_hits::cpu.inst        52569                      
system.cpu.icache.ReadReq_hits::total           52569                      
system.cpu.icache.demand_hits::cpu.inst         52569                      
system.cpu.icache.demand_hits::total            52569                      
system.cpu.icache.overall_hits::cpu.inst        52569                      
system.cpu.icache.overall_hits::total           52569                      
system.cpu.icache.ReadReq_misses::cpu.inst         1000                      
system.cpu.icache.ReadReq_misses::total          1000                      
system.cpu.icache.demand_misses::cpu.inst         1000                      
system.cpu.icache.demand_misses::total           1000                      
system.cpu.icache.overall_misses::cpu.inst         1000                      
system.cpu.icache.overall_misses::total          1000                      
system.cpu.icache.ReadReq_miss_latency::cpu.inst     83929000                      
system.cpu.icache.ReadReq_miss_latency::total     83929000                      
system.cpu.icache.demand_miss_latency::cpu.inst     83929000                      
system.cpu.icache.demand_miss_latency::total     83929000                      
system.cpu.icache.overall_miss_latency::cpu.inst     83929000                      
system.cpu.icache.overall_miss_latency::total     83929000                      
system.cpu.icache.ReadReq_accesses::cpu.inst        53569                      
system.cpu.icache.ReadReq_accesses::total        53569                      
system.cpu.icache.demand_accesses::cpu.inst        53569                      
system.cpu.icache.demand_accesses::total        53569                      
system.cpu.icache.overall_accesses::cpu.inst        53569                      
system.cpu.icache.overall_accesses::total        53569                      
system.cpu.icache.ReadReq_miss_rate::cpu.inst     0.018667                      
system.cpu.icache.ReadReq_miss_rate::total     0.018667                      
system.cpu.icache.demand_miss_rate::cpu.inst     0.018667                      
system.cpu.icache.demand_miss_rate::total     0.018667                      
system.cpu.icache.overall_miss_rate::cpu.inst     0.018667                      
system.cpu.icache.overall_miss_rate::total     0.018667                      
system.cpu.icache.ReadReq_avg_miss_latency::cpu.inst        83929                      
system.cpu.icache.ReadReq_avg_miss_latency::total        83929                      
system.cpu.icache.demand_avg_miss_latency::cpu.inst        83929                      
system.cpu.icache.demand_avg_miss_latency::total        83929                      
system.cpu.icache.overall_avg_miss_latency::cpu.inst        83929                      
system.cpu.icache.overall_avg_miss_latency::total        83929                      
system.cpu.icache.blocked_cycles::no_mshrs            0                      
system.cpu.icache.blocked_cycles::no_targets            0                      
system.cpu.icache.blocked::no_mshrs                 0                      
system.cpu.icache.blocked::no_targets               0                      
system.cpu.icache.avg_blocked_cycles::no_mshrs          nan                      
system.cpu.icache.avg_blocked_cycles::no_targets          nan                      
system.cpu.icache.writebacks::writebacks           96                      
system.cpu.icache.writebacks::total                96                      
system.cpu.icache.ReadReq_mshr_misses::cpu.inst         1000                      
system.cpu.icache.ReadReq_mshr_misses::total         1000                      
system.cpu.icache.demand_mshr_misses::cpu.inst         1000                      
system.cpu.icache.demand_mshr_misses::total         1000                      
system.cpu.icache.overall_mshr_misses::cpu.inst         1000                      
system.cpu.icache.overall_mshr_misses::total         1000                      
system.cpu.icache.ReadReq_mshr_miss_latency::cpu.inst     82930000                      
system.cpu.icache.ReadReq_mshr_miss_latency::total     82930000                      
system.cpu.icache.demand_mshr_miss_latency::cpu.inst     82930000                      
system.cpu.icache.demand_mshr_miss_latency::total     82930000                      
system.cpu.icache.overall_mshr_miss_latency::cpu.inst     82930000                      
system.cpu.icache.overall_mshr_miss_latency::total     82930000                      
system.cpu.icache.ReadReq_mshr_miss_rate::cpu.inst     0.018667                      
system.cpu.icache.ReadReq_mshr_miss_rate::total     0.018667                      
system.cpu.icache.demand_mshr_miss_rate::cpu.inst     0.018667                      
system.cpu.icache.demand_mshr_miss_rate::total     0.018667                      
system.cpu.icache.overall_mshr_miss_rate::cpu.inst     0.018667                      
system.cpu.icache.overall_mshr_miss_rate::total     0.018667                      
system.cpu.icache.ReadReq_avg_mshr_miss_latency::cpu.inst        82930                      
system.cpu.icache.ReadReq_avg_mshr_miss_latency::total        82930                      
system.cpu.icache.demand_avg_mshr_miss_latency::cpu.inst        82930                      
system.cpu.icache.demand_avg_mshr_miss_latency::total        82930                      
system.cpu.icache.overall_avg_mshr_miss_latency::cpu.inst        82930                      
system.cpu.icache.overall_avg_mshr_miss_latency::total        82930                      
system.cpu.l2cache.tags.pwrStateResidencyTicks::UNDEFINED    195799500                      
system.cpu.l2cache.tags.replacements                0                      
system.cpu.l2cache.tags.tagsinuse          900.815676                      
system.cpu.l2cache.tags.total_refs                108                      
system.cpu.l2cache.tags.sampled_refs             1453                      
system.cpu.l2cache.tags.avg_refs             0.074328                      
system.cpu.l2cache.tags.warmup_cycle            77000                      
system.cpu.l2cache.tags.occ_blocks::cpu.inst   581.541196                      
system.cpu.l2cache.tags.occ_blocks::cpu.data   319.274480                      
system.cpu.l2cache.tags.occ_percent::cpu.inst     0.017747                      
system.cpu.l2cache.tags.occ_percent::cpu.data     0.009743                      
system.cpu.l2cache.tags.occ_percent::total     0.027490                      
system.cpu.l2cache.tags.occ_task_id_blocks::1024         1453                      
system.cpu.l2cache.tags.age_task_id_blocks_1024::0           63                      
system.cpu.l2cache.tags.age_task_id_blocks_1024::1          439                      
system.cpu.l2cache.tags.age_task_id_blocks_1024::2          951                      
system.cpu.l2cache.tags.occ_task_id_percent::1024     0.044342                      
system.cpu.l2cache.tags.tag_accesses            13949                      
system.cpu.l2cache.tags.data_accesses           13949                      
system.cpu.l2cache.pwrStateResidencyTicks::UNDEFINED    195799500                      
system.cpu.l2cache.WritebackClean_hits::writebacks           96                      
system.cpu.l2cache.WritebackClean_hits::total           96                      
system.cpu.l2cache.ReadCleanReq_hits::cpu.inst           11                      
system.cpu.l2cache.ReadCleanReq_hits::total           11                      
system.cpu.l2cache.ReadSharedReq_hits::cpu.data            1                      
system.cpu.l2cache.ReadSharedReq_hits::total            1                      
system.cpu.l2cache.demand_hits::cpu.inst           11                      
system.cpu.l2cache.demand_hits::cpu.data            1                      
system.cpu.l2cache.demand_hits::total              12                      
system.cpu.l2cache.overall_hits::cpu.inst           11                      
system.cpu.l2cache.overall_hits::cpu.data            1                      
system.cpu.l2cache.overall_hits::total             12                      
system.cpu.l2cache.ReadExReq_misses::cpu.data          221                      
system.cpu.l2cache.ReadExReq_misses::total          221                      
system.cpu.l2cache.ReadCleanReq_misses::cpu.inst          989                      
system.cpu.l2cache.ReadCleanReq_misses::total          989                      
system.cpu.l2cache.ReadSharedReq_misses::cpu.data          244                      
system.cpu.l2cache.ReadSharedReq_misses::total          244                      
system.cpu.l2cache.demand_misses::cpu.inst          989                      
system.cpu.l2cache.demand_misses::cpu.data          465                      
system.cpu.l2cache.demand_misses::total          1454                      
system.cpu.l2cache.overall_misses::cpu.inst          989                      
system.cpu.l2cache.overall_misses::cpu.data          465                      
system.cpu.l2cache.overall_misses::total         1454                      
system.cpu.l2cache.ReadExReq_miss_latency::cpu.data     18414500                      
system.cpu.l2cache.ReadExReq_miss_latency::total     18414500                      
system.cpu.l2cache.ReadCleanReq_miss_latency::cpu.inst     81316000                      
system.cpu.l2cache.ReadCleanReq_miss_latency::total     81316000                      
system.cpu.l2cache.ReadSharedReq_miss_latency::cpu.data     21476000                      
system.cpu.l2cache.ReadSharedReq_miss_latency::total     21476000                      
system.cpu.l2cache.demand_miss_latency::cpu.inst     81316000                      
system.cpu.l2cache.demand_miss_latency::cpu.data     39890500                      
system.cpu.l2cache.demand_miss_latency::total    121206500                      
system.cpu.l2cache.overall_miss_latency::cpu.inst     81316000                      
system.cpu.l2cache.overall_miss_latency::cpu.data     39890500                      
system.cpu.l2cache.overall_miss_latency::total    121206500                      
system.cpu.l2cache.WritebackClean_accesses::writebacks           96                      
system.cpu.l2cache.WritebackClean_accesses::total           96                      
system.cpu.l2cache.ReadExReq_accesses::cpu.data          221                      
system.cpu.l2cache.ReadExReq_accesses::total          221                      
system.cpu.l2cache.ReadCleanReq_accesses::cpu.inst         1000                      
system.cpu.l2cache.ReadCleanReq_accesses::total         1000                      
system.cpu.l2cache.ReadSharedReq_accesses::cpu.data          245                      
system.cpu.l2cache.ReadSharedReq_accesses::total          245                      
system.cpu.l2cache.demand_accesses::cpu.inst         1000                      
system.cpu.l2cache.demand_accesses::cpu.data          466                      
system.cpu.l2cache.demand_accesses::total         1466                      
system.cpu.l2cache.overall_accesses::cpu.inst         1000                      
system.cpu.l2cache.overall_accesses::cpu.data          466                      
system.cpu.l2cache.overall_accesses::total         1466                      
system.cpu.l2cache.ReadExReq_miss_rate::cpu.data            1                      
system.cpu.l2cache.ReadExReq_miss_rate::total            1                      
system.cpu.l2cache.ReadCleanReq_miss_rate::cpu.inst     0.988999                      
system.cpu.l2cache.ReadCleanReq_miss_rate::total     0.988999                      
system.cpu.l2cache.ReadSharedReq_miss_rate::cpu.data     0.995918                      
system.cpu.l2cache.ReadSharedReq_miss_rate::total     0.995918                      
system.cpu.l2cache.demand_miss_rate::cpu.inst     0.988999                      
system.cpu.l2cache.demand_miss_rate::cpu.data     0.997854                      
system.cpu.l2cache.demand_miss_rate::total     0.991814                      
system.cpu.l2cache.overall_miss_rate::cpu.inst     0.988999                      
system.cpu.l2cache.overall_miss_rate::cpu.data     0.997854                      
system.cpu.l2cache.overall_miss_rate::total     0.991814                      
system.cpu.l2cache.ReadExReq_avg_miss_latency::cpu.data 83323.529411                      
system.cpu.l2cache.ReadExReq_avg_miss_latency::total 83323.529411                      
system.cpu.l2cache.ReadCleanReq_avg_miss_latency::cpu.inst 82220.424671                      
system.cpu.l2cache.ReadCleanReq_avg_miss_latency::total 82220.424671                      
system.cpu.l2cache.ReadSharedReq_avg_miss_latency::cpu.data 88016.393442                      
system.cpu.l2cache.ReadSharedReq_avg_miss_latency::total 88016.393442                      
system.cpu.l2cache.demand_avg_miss_latency::cpu.inst 82220.424671                      
system.cpu.l2cache.demand_avg_miss_latency::cpu.data 85786.021505                      
system.cpu.l2cache.demand_avg_miss_latency::total 83360.729023                      
system.cpu.l2cache.overall_avg_miss_latency::cpu.inst 82220.424671                      
system.cpu.l2cache.overall_avg_miss_latency::cpu.data 85786.021505                      
system.cpu.l2cache.overall_avg_miss_latency::total 83360.729023                      
system.cpu.l2cache.blocked_cycles::no_mshrs            0                      
system.cpu.l2cache.blocked_cycles::no_targets            0                      
system.cpu.l2cache.blocked::no_mshrs                0                      
system.cpu.l2cache.blocked::no_targets              0                      
system.cpu.l2cache.avg_blocked_cycles::no_mshrs          nan                      
system.cpu.l2cache.avg_blocked_cycles::no_targets          nan                      
system.cpu.l2cache.ReadExReq_mshr_misses::cpu.data          221                      
system.cpu.l2cache.ReadExReq_mshr_misses::total          221                      
system.cpu.l2cache.ReadCleanReq_mshr_misses::cpu.inst          989                      
system.cpu.l2cache.ReadCleanReq_mshr_misses::total          989                      
system.cpu.l2cache.ReadSharedReq_mshr_misses::cpu.data          244                      
system.cpu.l2cache.ReadSharedReq_mshr_misses::total          244                      
system.cpu.l2cache.demand_mshr_misses::cpu.inst          989                      
system.cpu.l2cache.demand_mshr_misses::cpu.data          465                      
system.cpu.l2cache.demand_mshr_misses::total         1454                      
system.cpu.l2cache.overall_mshr_misses::cpu.inst          989                      
system.cpu.l2cache.overall_mshr_misses::cpu.data          465                      
system.cpu.l2cache.overall_mshr_misses::total         1454                      
system.cpu.l2cache.ReadExReq_mshr_miss_latency::cpu.data     16204500                      
system.cpu.l2cache.ReadExReq_mshr_miss_latency::total     16204500                      
system.cpu.l2cache.ReadCleanReq_mshr_miss_latency::cpu.inst     71436000                      
system.cpu.l2cache.ReadCleanReq_mshr_miss_latency::total     71436000                      
system.cpu.l2cache.ReadSharedReq_mshr_miss_latency::cpu.data     19036000                      
system.cpu.l2cache.ReadSharedReq_mshr_miss_latency::total     19036000                      
system.cpu.l2cache.demand_mshr_miss_latency::cpu.inst     71436000                      
system.cpu.l2cache.demand_mshr_miss_latency::cpu.data     35240500                      
system.cpu.l2cache.demand_mshr_miss_latency::total    106676500                      
system.cpu.l2cache.overall_mshr_miss_latency::cpu.inst     71436000                      
system.cpu.l2cache.overall_mshr_miss_latency::cpu.data     35240500                      
system.cpu.l2cache.overall_mshr_miss_latency::total    106676500                      
system.cpu.l2cache.ReadExReq_mshr_miss_rate::cpu.data            1                      
system.cpu.l2cache.ReadExReq_mshr_miss_rate::total            1                      
system.cpu.l2cache.ReadCleanReq_mshr_miss_rate::cpu.inst     0.988999                      
system.cpu.l2cache.ReadCleanReq_mshr_miss_rate::total     0.988999                      
system.cpu.l2cache.ReadSharedReq_mshr_miss_rate::cpu.data     0.995918                      
system.cpu.l2cache.ReadSharedReq_mshr_miss_rate::total     0.995918                      
system.cpu.l2cache.demand_mshr_miss_rate::cpu.inst     0.988999                      
system.cpu.l2cache.demand_mshr_miss_rate::cpu.data     0.997854                      
system.cpu.l2cache.demand_mshr_miss_rate::total     0.991814                      
system.cpu.l2cache.overall_mshr_miss_rate::cpu.inst     0.988999                      
system.cpu.l2cache.overall_mshr_miss_rate::cpu.data     0.997854                      
system.cpu.l2cache.overall_mshr_miss_rate::total     0.991814                      
system.cpu.l2cache.ReadExReq_avg_mshr_miss_latency::cpu.data 73323.529411                      
system.cpu.l2cache.ReadExReq_avg_mshr_miss_latency::total 73323.529411                      
system.cpu.l2cache.ReadCleanReq_avg_mshr_miss_latency::cpu.inst 72230.535894                      
system.cpu.l2cache.ReadCleanReq_avg_mshr_miss_latency::total 72230.535894                      
system.cpu.l2cache.ReadSharedReq_avg_mshr_miss_latency::cpu.data 78016.393442                      
system.cpu.l2cache.ReadSharedReq_avg_mshr_miss_latency::total 78016.393442                      
system.cpu.l2cache.demand_avg_mshr_miss_latency::cpu.inst 72230.535894                      
system.cpu.l2cache.demand_avg_mshr_miss_latency::cpu.data 75786.021505                      
system.cpu.l2cache.demand_avg_mshr_miss_latency::total 73367.606602                      
system.cpu.l2cache.overall_avg_mshr_miss_latency::cpu.inst 72230.535894                      
system.cpu.l2cache.overall_avg_mshr_miss_latency::cpu.data 75786.021505                      
system.cpu.l2cache.overall_avg_mshr_miss_latency::total 73367.606602                      
system.cpu.toL2Bus.snoop_filter.tot_requests         1562                      
system.cpu.toL2Bus.snoop_filter.hit_single_requests           97                      
system.cpu.toL2Bus.snoop_filter.hit_multi_requests            0                      
system.cpu.toL2Bus.snoop_filter.tot_snoops            0                      
system.cpu.toL2Bus.snoop_filter.hit_single_snoops            0                      
system.cpu.toL2Bus.snoop_filter.hit_multi_snoops            0                      
system.cpu.toL2Bus.pwrStateResidencyTicks::UNDEFINED    195799500                      
system.cpu.toL2Bus.trans_dist::ReadResp          1244                      
system.cpu.toL2Bus.trans_dist::WritebackClean           96                      
system.cpu.toL2Bus.trans_dist::ReadExReq          221                      
system.cpu.toL2Bus.trans_dist::ReadExResp          221                      
system.cpu.toL2Bus.trans_dist::ReadCleanReq         1000                      
system.cpu.toL2Bus.trans_dist::ReadSharedReq          245                      
system.cpu.toL2Bus.pkt_count_system.cpu.icache.mem_side::system.cpu.l2cache.cpu_side         2095                      
system.cpu.toL2Bus.pkt_count_system.cpu.dcache.mem_side::system.cpu.l2cache.cpu_side          932                      
system.cpu.toL2Bus.pkt_count::total              3027                      
system.cpu.toL2Bus.pkt_size_system.cpu.icache.mem_side::system.cpu.l2cache.cpu_side        70080                      
system.cpu.toL2Bus.pkt_size_system.cpu.dcache.mem_side::system.cpu.l2cache.cpu_side        29824                      
system.cpu.toL2Bus.pkt_size::total              99904                      
system.cpu.toL2Bus.snoops                           0                      
system.cpu.toL2Bus.snoopTraffic                     0                      
system.cpu.toL2Bus.snoop_fanout::samples         1466                      
system.cpu.toL2Bus.snoop_fanout::mean        0.000682                      
system.cpu.toL2Bus.snoop_fanout::stdev       0.026117                      
system.cpu.toL2Bus.snoop_fanout::underflows            0      0.00%      0.00%
system.cpu.toL2Bus.snoop_fanout::0               1465     99.93%     99.93%
system.cpu.toL2Bus.snoop_fanout::1                  1      0.06%     99.99%
system.cpu.toL2Bus.snoop_fanout::2                  0      0.00%     99.99%
system.cpu.toL2Bus.snoop_fanout::overflows            0      0.00%     99.99%
system.cpu.toL2Bus.snoop_fanout::min_value            0                      
system.cpu.toL2Bus.snoop_fanout::max_value            1                      
system.cpu.toL2Bus.snoop_fanout::total           1466                      
system.cpu.toL2Bus.reqLayer0.occupancy         877000                      
system.cpu.toL2Bus.reqLayer0.utilization          0.4                      
system.cpu.toL2Bus.respLayer0.occupancy       1498500                      
system.cpu.toL2Bus.respLayer0.utilization          0.7                      
system.cpu.toL2Bus.respLayer1.occupancy        699000                      
system.cpu.toL2Bus.respLayer1.utilization          0.3                      
system.membus.snoop_filter.tot_requests          1453                      
system.membus.snoop_filter.hit_single_requests            0                      
system.membus.snoop_filter.hit_multi_requests            0                      
system.membus.snoop_filter.tot_snoops               0                      
system.membus.snoop_filter.hit_single_snoops            0                      
system.membus.snoop_filter.hit_multi_snoops            0                      
system.membus.pwrStateResidencyTicks::UNDEFINED    195799500                      
system.membus.trans_dist::ReadResp               1232                      
system.membus.trans_dist::ReadExReq               221                      
system.membus.trans_dist::ReadExResp              221                      
system.membus.trans_dist::ReadSharedReq          1232                      
system.membus.pkt_count_system.cpu.l2cache.mem_side::system.physmem.port         2906                      
system.membus.pkt_count::total                   2906                      
system.membus.pkt_size_system.cpu.l2cache.mem_side::system.physmem.port        92992                      
system.membus.pkt_size::total                   92992                      
system.membus.snoops                                0                      
system.membus.snoopTraffic                          0                      
system.membus.snoop_fanout::samples              1453                      
system.membus.snoop_fanout::mean                    0                      
system.membus.snoop_fanout::stdev                  -0                      
system.membus.snoop_fanout::underflows              0      0.00%      0.00%
system.membus.snoop_fanout::0                    1453    100.00%    100.00%
system.membus.snoop_fanout::1                       0      0.00%    100.00%
system.membus.snoop_fanout::overflows               0      0.00%    100.00%
system.membus.snoop_fanout::min_value               0                      
system.membus.snoop_fanout::max_value               0                      
system.membus.snoop_fanout::total                1453                      
system.membus.reqLayer0.occupancy             1688000                      
system.membus.reqLayer0.utilization               0.8                      
system.membus.respLayer1.occupancy            7735750                      
system.membus.respLayer1.utilization              3.9                      

---------- End Simulation Statistics   ----------
