
---------- Begin Simulation Statistics ----------
sim_seconds                                  0.000230                      
sim_ticks                                   230385500                      
final_tick                                  230385500                      
sim_freq                                 1000000000000                      
host_inst_rate                                 316365                      
host_op_rate                                   317320                      
host_tick_rate                              185259677                      
host_mem_usage                                 390824                      
host_seconds                                     1.24                      
sim_insts                                      393394                      
sim_ops                                        394599                      
system.voltage_domain.voltage                       1                      
system.clk_domain.clock                          1000                      
system.physmem.pwrStateResidencyTicks::UNDEFINED    230385500                      
system.physmem.bytes_read::cpu.inst           1838268                      
system.physmem.bytes_read::cpu.data            666666                      
system.physmem.bytes_read::total              2504934                      
system.physmem.bytes_inst_read::cpu.inst      1838268                      
system.physmem.bytes_inst_read::total         1838268                      
system.physmem.bytes_written::cpu.data         421087                      
system.physmem.bytes_written::total            421087                      
system.physmem.num_reads::cpu.inst             459567                      
system.physmem.num_reads::cpu.data              99900                      
system.physmem.num_reads::total                559467                      
system.physmem.num_writes::cpu.data             60600                      
system.physmem.num_writes::total                60600                      
system.physmem.bw_read::cpu.inst           7979095906                      
system.physmem.bw_read::cpu.data           2893697737                      
system.physmem.bw_read::total             10872793643                      
system.physmem.bw_inst_read::cpu.inst      7979095906                      
system.physmem.bw_inst_read::total         7979095906                      
system.physmem.bw_write::cpu.data          1827749576                      
system.physmem.bw_write::total             1827749576                      
system.physmem.bw_total::cpu.inst          7979095906                      
system.physmem.bw_total::cpu.data          4721447313                      
system.physmem.bw_total::total            12700543219                      
system.pwrStateResidencyTicks::UNDEFINED    230385500                      
system.cpu_clk_domain.clock                       500                      
system.cpu.dtb.read_hits                            0                      
system.cpu.dtb.read_misses                          0                      
system.cpu.dtb.read_accesses                        0                      
system.cpu.dtb.write_hits                           0                      
system.cpu.dtb.write_misses                         0                      
system.cpu.dtb.write_accesses                       0                      
system.cpu.dtb.hits                                 0                      
system.cpu.dtb.misses                               0                      
system.cpu.dtb.accesses                             0                      
system.cpu.itb.read_hits                            0                      
system.cpu.itb.read_misses                          0                      
system.cpu.itb.read_accesses                        0                      
system.cpu.itb.write_hits                           0                      
system.cpu.itb.write_misses                         0                      
system.cpu.itb.write_accesses                       0                      
system.cpu.itb.hits                                 0                      
system.cpu.itb.misses                               0                      
system.cpu.itb.accesses                             0                      
system.cpu.workload.numSyscalls                   216                      
system.cpu.pwrStateResidencyTicks::ON       230385500                      
system.cpu.numCycles                           460772                      
system.cpu.numWorkItemsStarted                      0                      
system.cpu.numWorkItemsCompleted                    0                      
system.cpu.committedInsts                      393394                      
system.cpu.committedOps                        394599                      
system.cpu.num_int_alu_accesses                392588                      
system.cpu.num_fp_alu_accesses                   1163                      
system.cpu.num_vec_alu_accesses                     0                      
system.cpu.num_func_calls                       22164                      
system.cpu.num_conditional_control_insts        63847                      
system.cpu.num_int_insts                       392588                      
system.cpu.num_fp_insts                          1163                      
system.cpu.num_vec_insts                            0                      
system.cpu.num_int_register_reads              495215                      
system.cpu.num_int_register_writes             261461                      
system.cpu.num_fp_register_reads                  936                      
system.cpu.num_fp_register_writes                 756                      
system.cpu.num_vec_register_reads                   0                      
system.cpu.num_vec_register_writes                  0                      
system.cpu.num_mem_refs                        160500                      
system.cpu.num_load_insts                       99900                      
system.cpu.num_store_insts                      60600                      
system.cpu.num_idle_cycles                         -0                      
system.cpu.num_busy_cycles                     460772                      
system.cpu.not_idle_fraction                        1                      
system.cpu.idle_fraction                           -0                      
system.cpu.Branches                             86011                      
system.cpu.op_class::No_OpClass                   236      0.05%      0.05%
system.cpu.op_class::IntAlu                    233005     59.01%     59.07%
system.cpu.op_class::IntMult                      626      0.15%     59.23%
system.cpu.op_class::IntDiv                         4      0.00%     59.23%
system.cpu.op_class::FloatAdd                      11      0.00%     59.23%
system.cpu.op_class::FloatCmp                     161      0.04%     59.27%
system.cpu.op_class::FloatCvt                     109      0.02%     59.30%
system.cpu.op_class::FloatMult                      8      0.00%     59.30%
system.cpu.op_class::FloatMultAcc                  22      0.00%     59.31%
system.cpu.op_class::FloatDiv                      11      0.00%     59.31%
system.cpu.op_class::FloatMisc                    117      0.02%     59.34%
system.cpu.op_class::FloatSqrt                      5      0.00%     59.34%
system.cpu.op_class::SimdAdd                        0      0.00%     59.34%
system.cpu.op_class::SimdAddAcc                     0      0.00%     59.34%
system.cpu.op_class::SimdAlu                        0      0.00%     59.34%
system.cpu.op_class::SimdCmp                        0      0.00%     59.34%
system.cpu.op_class::SimdCvt                        0      0.00%     59.34%
system.cpu.op_class::SimdMisc                       0      0.00%     59.34%
system.cpu.op_class::SimdMult                       0      0.00%     59.34%
system.cpu.op_class::SimdMultAcc                    0      0.00%     59.34%
system.cpu.op_class::SimdShift                      0      0.00%     59.34%
system.cpu.op_class::SimdShiftAcc                   0      0.00%     59.34%
system.cpu.op_class::SimdSqrt                       0      0.00%     59.34%
system.cpu.op_class::SimdFloatAdd                   0      0.00%     59.34%
system.cpu.op_class::SimdFloatAlu                   0      0.00%     59.34%
system.cpu.op_class::SimdFloatCmp                   0      0.00%     59.34%
system.cpu.op_class::SimdFloatCvt                   0      0.00%     59.34%
system.cpu.op_class::SimdFloatDiv                   0      0.00%     59.34%
system.cpu.op_class::SimdFloatMisc                  0      0.00%     59.34%
system.cpu.op_class::SimdFloatMult                  0      0.00%     59.34%
system.cpu.op_class::SimdFloatMultAcc               0      0.00%     59.34%
system.cpu.op_class::SimdFloatSqrt                  0      0.00%     59.34%
system.cpu.op_class::MemRead                    99353     25.16%     84.51%
system.cpu.op_class::MemWrite                   60428     15.30%     99.81%
system.cpu.op_class::FloatMemRead                 547      0.13%     99.95%
system.cpu.op_class::FloatMemWrite                172      0.04%     99.99%
system.cpu.op_class::IprAccess                      0      0.00%     99.99%
system.cpu.op_class::InstPrefetch                   0      0.00%     99.99%
system.cpu.op_class::total                     394815                      
system.membus.snoop_filter.tot_requests             0                      
system.membus.snoop_filter.hit_single_requests            0                      
system.membus.snoop_filter.hit_multi_requests            0                      
system.membus.snoop_filter.tot_snoops               0                      
system.membus.snoop_filter.hit_single_snoops            0                      
system.membus.snoop_filter.hit_multi_snoops            0                      
system.membus.pwrStateResidencyTicks::UNDEFINED    230385500                      
system.membus.trans_dist::ReadReq              557824                      
system.membus.trans_dist::ReadResp             559467                      
system.membus.trans_dist::WriteReq              58957                      
system.membus.trans_dist::WriteResp             58957                      
system.membus.trans_dist::LoadLockedReq          1643                      
system.membus.trans_dist::StoreCondReq           1643                      
system.membus.trans_dist::StoreCondResp          1643                      
system.membus.pkt_count_system.cpu.icache_port::system.physmem.port       919134                      
system.membus.pkt_count_system.cpu.dcache_port::system.physmem.port       321000                      
system.membus.pkt_count::total                1240134                      
system.membus.pkt_size_system.cpu.icache_port::system.physmem.port      1838268                      
system.membus.pkt_size_system.cpu.dcache_port::system.physmem.port      1087753                      
system.membus.pkt_size::total                 2926021                      
system.membus.snoops                                0                      
system.membus.snoopTraffic                          0                      
system.membus.snoop_fanout::samples            620067                      
system.membus.snoop_fanout::mean                    0                      
system.membus.snoop_fanout::stdev                  -0                      
system.membus.snoop_fanout::underflows              0      0.00%      0.00%
system.membus.snoop_fanout::0                  620067    100.00%    100.00%
system.membus.snoop_fanout::1                       0      0.00%    100.00%
system.membus.snoop_fanout::overflows               0      0.00%    100.00%
system.membus.snoop_fanout::min_value               0                      
system.membus.snoop_fanout::max_value               0                      
system.membus.snoop_fanout::total              620067                      

---------- End Simulation Statistics   ----------
