
---------- Begin Simulation Statistics ----------
sim_seconds                                  0.000315                      
sim_ticks                                   314802000                      
final_tick                                  314802000                      
sim_freq                                 1000000000000                      
host_inst_rate                                 123597                      
host_op_rate                                   123952                      
host_tick_rate                              144712615                      
host_mem_usage                                 402140                      
host_seconds                                     2.18                      
sim_insts                                      268862                      
sim_ops                                        269637                      
system.voltage_domain.voltage                       1                      
system.clk_domain.clock                          1000                      
system.physmem.pwrStateResidencyTicks::UNDEFINED    314802000                      
system.physmem.bytes_read::cpu.inst             79808                      
system.physmem.bytes_read::cpu.data             31488                      
system.physmem.bytes_read::total               111296                      
system.physmem.bytes_inst_read::cpu.inst        79808                      
system.physmem.bytes_inst_read::total           79808                      
system.physmem.num_reads::cpu.inst               1247                      
system.physmem.num_reads::cpu.data                492                      
system.physmem.num_reads::total                  1739                      
system.physmem.bw_read::cpu.inst            253518084                      
system.physmem.bw_read::cpu.data            100024777                      
system.physmem.bw_read::total               353542862                      
system.physmem.bw_inst_read::cpu.inst       253518084                      
system.physmem.bw_inst_read::total          253518084                      
system.physmem.bw_total::cpu.inst           253518084                      
system.physmem.bw_total::cpu.data           100024777                      
system.physmem.bw_total::total              353542862                      
system.physmem.readReqs                          1739                      
system.physmem.writeReqs                            0                      
system.physmem.readBursts                        1739                      
system.physmem.writeBursts                          0                      
system.physmem.bytesReadDRAM                   111296                      
system.physmem.bytesReadWrQ                         0                      
system.physmem.bytesWritten                         0                      
system.physmem.bytesReadSys                    111296                      
system.physmem.bytesWrittenSys                      0                      
system.physmem.servicedByWrQ                        0                      
system.physmem.mergedWrBursts                       0                      
system.physmem.neitherReadNorWriteReqs              0                      
system.physmem.perBankRdBursts::0                 227                      
system.physmem.perBankRdBursts::1                 134                      
system.physmem.perBankRdBursts::2                 158                      
system.physmem.perBankRdBursts::3                 133                      
system.physmem.perBankRdBursts::4                 124                      
system.physmem.perBankRdBursts::5                 105                      
system.physmem.perBankRdBursts::6                  49                      
system.physmem.perBankRdBursts::7                  84                      
system.physmem.perBankRdBursts::8                  33                      
system.physmem.perBankRdBursts::9                  47                      
system.physmem.perBankRdBursts::10                 65                      
system.physmem.perBankRdBursts::11                 65                      
system.physmem.perBankRdBursts::12                137                      
system.physmem.perBankRdBursts::13                134                      
system.physmem.perBankRdBursts::14                151                      
system.physmem.perBankRdBursts::15                 93                      
system.physmem.perBankWrBursts::0                   0                      
system.physmem.perBankWrBursts::1                   0                      
system.physmem.perBankWrBursts::2                   0                      
system.physmem.perBankWrBursts::3                   0                      
system.physmem.perBankWrBursts::4                   0                      
system.physmem.perBankWrBursts::5                   0                      
system.physmem.perBankWrBursts::6                   0                      
system.physmem.perBankWrBursts::7                   0                      
system.physmem.perBankWrBursts::8                   0                      
system.physmem.perBankWrBursts::9                   0                      
system.physmem.perBankWrBursts::10                  0                      
system.physmem.perBankWrBursts::11                  0                      
system.physmem.perBankWrBursts::12                  0                      
system.physmem.perBankWrBursts::13                  0                      
system.physmem.perBankWrBursts::14                  0                      
system.physmem.perBankWrBursts::15                  0                      
system.physmem.numRdRetry                           0                      
system.physmem.numWrRetry                           0                      
system.physmem.totGap                       314682500                      
system.physmem.readPktSize::0                       0                      
system.physmem.readPktSize::1                       0                      
system.physmem.readPktSize::2                       0                      
system.physmem.readPktSize::3                       0                      
system.physmem.readPktSize::4                       0                      
system.physmem.readPktSize::5                       0                      
system.physmem.readPktSize::6                    1739                      
system.physmem.writePktSize::0                      0                      
system.physmem.writePktSize::1                      0                      
system.physmem.writePktSize::2                      0                      
system.physmem.writePktSize::3                      0                      
system.physmem.writePktSize::4                      0                      
system.physmem.writePktSize::5                      0                      
system.physmem.writePktSize::6                      0                      
system.physmem.rdQLenPdf::0                      1515                      
system.physmem.rdQLenPdf::1                       209                      
system.physmem.rdQLenPdf::2                        15                      
system.physmem.rdQLenPdf::3                         0                      
system.physmem.rdQLenPdf::4                         0                      
system.physmem.rdQLenPdf::5                         0                      
system.physmem.rdQLenPdf::6                         0                      
system.physmem.rdQLenPdf::7                         0                      
system.physmem.rdQLenPdf::8                         0                      
system.physmem.rdQLenPdf::9                         0                      
system.physmem.rdQLenPdf::10                        0                      
system.physmem.rdQLenPdf::11                        0                      
system.physmem.rdQLenPdf::12                        0                      
system.physmem.rdQLenPdf::13                        0                      
system.physmem.rdQLenPdf::14                        0                      
system.physmem.rdQLenPdf::15                        0                      
system.physmem.rdQLenPdf::16                        0                      
system.physmem.rdQLenPdf::17                        0                      
system.physmem.rdQLenPdf::18                        0                      
system.physmem.rdQLenPdf::19                        0                      
system.physmem.rdQLenPdf::20                        0                      
system.physmem.rdQLenPdf::21                        0                      
system.physmem.rdQLenPdf::22                        0                      
system.physmem.rdQLenPdf::23                        0                      
system.physmem.rdQLenPdf::24                        0                      
system.physmem.rdQLenPdf::25                        0                      
system.physmem.rdQLenPdf::26                        0                      
system.physmem.rdQLenPdf::27                        0                      
system.physmem.rdQLenPdf::28                        0                      
system.physmem.rdQLenPdf::29                        0                      
system.physmem.rdQLenPdf::30                        0                      
system.physmem.rdQLenPdf::31                        0                      
system.physmem.wrQLenPdf::0                         0                      
system.physmem.wrQLenPdf::1                         0                      
system.physmem.wrQLenPdf::2                         0                      
system.physmem.wrQLenPdf::3                         0                      
system.physmem.wrQLenPdf::4                         0                      
system.physmem.wrQLenPdf::5                         0                      
system.physmem.wrQLenPdf::6                         0                      
system.physmem.wrQLenPdf::7                         0                      
system.physmem.wrQLenPdf::8                         0                      
system.physmem.wrQLenPdf::9                         0                      
system.physmem.wrQLenPdf::10                        0                      
system.physmem.wrQLenPdf::11                        0                      
system.physmem.wrQLenPdf::12                        0                      
system.physmem.wrQLenPdf::13                        0                      
system.physmem.wrQLenPdf::14                        0                      
system.physmem.wrQLenPdf::15                        0                      
system.physmem.wrQLenPdf::16                        0                      
system.physmem.wrQLenPdf::17                        0                      
system.physmem.wrQLenPdf::18                        0                      
system.physmem.wrQLenPdf::19                        0                      
system.physmem.wrQLenPdf::20                        0                      
system.physmem.wrQLenPdf::21                        0                      
system.physmem.wrQLenPdf::22                        0                      
system.physmem.wrQLenPdf::23                        0                      
system.physmem.wrQLenPdf::24                        0                      
system.physmem.wrQLenPdf::25                        0                      
system.physmem.wrQLenPdf::26                        0                      
system.physmem.wrQLenPdf::27                        0                      
system.physmem.wrQLenPdf::28                        0                      
system.physmem.wrQLenPdf::29                        0                      
system.physmem.wrQLenPdf::30                        0                      
system.physmem.wrQLenPdf::31                        0                      
system.physmem.wrQLenPdf::32                        0                      
system.physmem.wrQLenPdf::33                        0                      
system.physmem.wrQLenPdf::34                        0                      
system.physmem.wrQLenPdf::35                        0                      
system.physmem.wrQLenPdf::36                        0                      
system.physmem.wrQLenPdf::37                        0                      
system.physmem.wrQLenPdf::38                        0                      
system.physmem.wrQLenPdf::39                        0                      
system.physmem.wrQLenPdf::40                        0                      
system.physmem.wrQLenPdf::41                        0                      
system.physmem.wrQLenPdf::42                        0                      
system.physmem.wrQLenPdf::43                        0                      
system.physmem.wrQLenPdf::44                        0                      
system.physmem.wrQLenPdf::45                        0                      
system.physmem.wrQLenPdf::46                        0                      
system.physmem.wrQLenPdf::47                        0                      
system.physmem.wrQLenPdf::48                        0                      
system.physmem.wrQLenPdf::49                        0                      
system.physmem.wrQLenPdf::50                        0                      
system.physmem.wrQLenPdf::51                        0                      
system.physmem.wrQLenPdf::52                        0                      
system.physmem.wrQLenPdf::53                        0                      
system.physmem.wrQLenPdf::54                        0                      
system.physmem.wrQLenPdf::55                        0                      
system.physmem.wrQLenPdf::56                        0                      
system.physmem.wrQLenPdf::57                        0                      
system.physmem.wrQLenPdf::58                        0                      
system.physmem.wrQLenPdf::59                        0                      
system.physmem.wrQLenPdf::60                        0                      
system.physmem.wrQLenPdf::61                        0                      
system.physmem.wrQLenPdf::62                        0                      
system.physmem.wrQLenPdf::63                        0                      
system.physmem.bytesPerActivate::samples          399                      
system.physmem.bytesPerActivate::mean      274.766917                      
system.physmem.bytesPerActivate::gmean     184.602632                      
system.physmem.bytesPerActivate::stdev     253.752785                      
system.physmem.bytesPerActivate::0-127            129     32.33%     32.33%
system.physmem.bytesPerActivate::128-255           89     22.31%     54.64%
system.physmem.bytesPerActivate::256-383           77     19.30%     73.93%
system.physmem.bytesPerActivate::384-511           33      8.27%     82.21%
system.physmem.bytesPerActivate::512-639           24      6.02%     88.22%
system.physmem.bytesPerActivate::640-767           16      4.01%     92.23%
system.physmem.bytesPerActivate::768-895            8      2.01%     94.24%
system.physmem.bytesPerActivate::896-1023            9      2.26%     96.49%
system.physmem.bytesPerActivate::1024-1151           14      3.51%    100.00%
system.physmem.bytesPerActivate::total            399                      
system.physmem.totQLat                       26352500                      
system.physmem.totMemAccLat                  58958750                      
system.physmem.totBusLat                      8695000                      
system.physmem.avgQLat                       15153.82                      
system.physmem.avgBusLat                      5000.00                      
system.physmem.avgMemAccLat                  33903.82                      
system.physmem.avgRdBW                         353.54                      
system.physmem.avgWrBW                           0.00                      
system.physmem.avgRdBWSys                      353.54                      
system.physmem.avgWrBWSys                        0.00                      
system.physmem.peakBW                        12800.00                      
system.physmem.busUtil                           2.76                      
system.physmem.busUtilRead                       2.76                      
system.physmem.busUtilWrite                      0.00                      
system.physmem.avgRdQLen                         1.09                      
system.physmem.avgWrQLen                         0.00                      
system.physmem.readRowHits                       1334                      
system.physmem.writeRowHits                         0                      
system.physmem.readRowHitRate                   76.71                      
system.physmem.writeRowHitRate                    nan                      
system.physmem.avgGap                       180956.01                      
system.physmem.pageHitRate                      76.71                      
system.physmem_0.actEnergy                    1792140                      
system.physmem_0.preEnergy                     941160                      
system.physmem_0.readEnergy                   7239960                      
system.physmem_0.writeEnergy                        0                      
system.physmem_0.refreshEnergy           24585600.000000                      
system.physmem_0.actBackEnergy               18091800                      
system.physmem_0.preBackEnergy                 541440                      
system.physmem_0.actPowerDownEnergy         118249350                      
system.physmem_0.prePowerDownEnergy           5529120                      
system.physmem_0.selfRefreshEnergy                  0                      
system.physmem_0.totalEnergy                176970570                      
system.physmem_0.averagePower              562.164694                      
system.physmem_0.totalIdleTime              273528500                      
system.physmem_0.memoryStateTime::IDLE         234000                      
system.physmem_0.memoryStateTime::REF        10400000                      
system.physmem_0.memoryStateTime::SREF              0                      
system.physmem_0.memoryStateTime::PRE_PDN     14394250                      
system.physmem_0.memoryStateTime::ACT        30444250                      
system.physmem_0.memoryStateTime::ACT_PDN    259329500                      
system.physmem_1.actEnergy                    1099560                      
system.physmem_1.preEnergy                     573045                      
system.physmem_1.readEnergy                   5176500                      
system.physmem_1.writeEnergy                        0                      
system.physmem_1.refreshEnergy           19053840.000000                      
system.physmem_1.actBackEnergy               13329450                      
system.physmem_1.preBackEnergy                 898560                      
system.physmem_1.actPowerDownEnergy          65752350                      
system.physmem_1.prePowerDownEnergy          19152000                      
system.physmem_1.selfRefreshEnergy           23055720                      
system.physmem_1.totalEnergy                148091025                      
system.physmem_1.averagePower              470.425934                      
system.physmem_1.totalIdleTime              283145750                      
system.physmem_1.memoryStateTime::IDLE        1547500                      
system.physmem_1.memoryStateTime::REF         8078000                      
system.physmem_1.memoryStateTime::SREF       89161000                      
system.physmem_1.memoryStateTime::PRE_PDN     49875250                      
system.physmem_1.memoryStateTime::ACT        21948000                      
system.physmem_1.memoryStateTime::ACT_PDN    144192250                      
system.pwrStateResidencyTicks::UNDEFINED    314802000                      
system.cpu.branchPred.lookups                   76027                      
system.cpu.branchPred.condPredicted             51298                      
system.cpu.branchPred.condIncorrect              6658                      
system.cpu.branchPred.BTBLookups                55114                      
system.cpu.branchPred.BTBHits                   24407                      
system.cpu.branchPred.BTBCorrect                    0                      
system.cpu.branchPred.BTBHitPct             44.284574                      
system.cpu.branchPred.usedRAS                       0                      
system.cpu.branchPred.RASInCorrect                  0                      
system.cpu.branchPred.indirectLookups           17265                      
system.cpu.branchPred.indirectHits               9349                      
system.cpu.branchPred.indirectMisses             7916                      
system.cpu.branchPredindirectMispredicted         3875                      
system.cpu_clk_domain.clock                       500                      
system.cpu.dtb.read_hits                            0                      
system.cpu.dtb.read_misses                          0                      
system.cpu.dtb.read_accesses                        0                      
system.cpu.dtb.write_hits                           0                      
system.cpu.dtb.write_misses                         0                      
system.cpu.dtb.write_accesses                       0                      
system.cpu.dtb.hits                                 0                      
system.cpu.dtb.misses                               0                      
system.cpu.dtb.accesses                             0                      
system.cpu.itb.read_hits                            0                      
system.cpu.itb.read_misses                          0                      
system.cpu.itb.read_accesses                        0                      
system.cpu.itb.write_hits                           0                      
system.cpu.itb.write_misses                         0                      
system.cpu.itb.write_accesses                       0                      
system.cpu.itb.hits                                 0                      
system.cpu.itb.misses                               0                      
system.cpu.itb.accesses                             0                      
system.cpu.workload.numSyscalls                   183                      
system.cpu.pwrStateResidencyTicks::ON       314802000                      
system.cpu.numCycles                           629604                      
system.cpu.numWorkItemsStarted                      0                      
system.cpu.numWorkItemsCompleted                    0                      
system.cpu.committedInsts                      268862                      
system.cpu.committedOps                        269637                      
system.cpu.discardedOps                         17740                      
system.cpu.numFetchSuspends                         0                      
system.cpu.cpi                               2.341737                      
system.cpu.ipc                               0.427034                      
system.cpu.op_class_0::No_OpClass                 192      0.07%      0.07%
system.cpu.op_class_0::IntAlu                  158712     58.86%     58.93%
system.cpu.op_class_0::IntMult                    439      0.16%     59.10%
system.cpu.op_class_0::IntDiv                     266      0.10%     59.19%
system.cpu.op_class_0::FloatAdd                     0      0.00%     59.19%
system.cpu.op_class_0::FloatCmp                     0      0.00%     59.19%
system.cpu.op_class_0::FloatCvt                     0      0.00%     59.19%
system.cpu.op_class_0::FloatMult                    0      0.00%     59.19%
system.cpu.op_class_0::FloatMultAcc                 0      0.00%     59.19%
system.cpu.op_class_0::FloatDiv                     0      0.00%     59.19%
system.cpu.op_class_0::FloatMisc                    0      0.00%     59.19%
system.cpu.op_class_0::FloatSqrt                    0      0.00%     59.19%
system.cpu.op_class_0::SimdAdd                      0      0.00%     59.19%
system.cpu.op_class_0::SimdAddAcc                   0      0.00%     59.19%
system.cpu.op_class_0::SimdAlu                      0      0.00%     59.19%
system.cpu.op_class_0::SimdCmp                      0      0.00%     59.19%
system.cpu.op_class_0::SimdCvt                      0      0.00%     59.19%
system.cpu.op_class_0::SimdMisc                     0      0.00%     59.19%
system.cpu.op_class_0::SimdMult                     0      0.00%     59.19%
system.cpu.op_class_0::SimdMultAcc                  0      0.00%     59.19%
system.cpu.op_class_0::SimdShift                    0      0.00%     59.19%
system.cpu.op_class_0::SimdShiftAcc                 0      0.00%     59.19%
system.cpu.op_class_0::SimdSqrt                     0      0.00%     59.19%
system.cpu.op_class_0::SimdFloatAdd                 0      0.00%     59.19%
system.cpu.op_class_0::SimdFloatAlu                 0      0.00%     59.19%
system.cpu.op_class_0::SimdFloatCmp                 0      0.00%     59.19%
system.cpu.op_class_0::SimdFloatCvt                 0      0.00%     59.19%
system.cpu.op_class_0::SimdFloatDiv                 0      0.00%     59.19%
system.cpu.op_class_0::SimdFloatMisc                0      0.00%     59.19%
system.cpu.op_class_0::SimdFloatMult                0      0.00%     59.19%
system.cpu.op_class_0::SimdFloatMultAcc             0      0.00%     59.19%
system.cpu.op_class_0::SimdFloatSqrt                0      0.00%     59.19%
system.cpu.op_class_0::MemRead                  68237     25.31%     84.50%
system.cpu.op_class_0::MemWrite                 41779     15.49%    100.00%
system.cpu.op_class_0::FloatMemRead                 0      0.00%    100.00%
system.cpu.op_class_0::FloatMemWrite               12      0.00%    100.00%
system.cpu.op_class_0::IprAccess                    0      0.00%    100.00%
system.cpu.op_class_0::InstPrefetch                 0      0.00%    100.00%
system.cpu.op_class_0::total                   269637                      
system.cpu.tickCycles                          376339                      
system.cpu.idleCycles                          253265                      
system.cpu.fetch2.int_instructions             208882                      
system.cpu.fetch2.fp_instructions                   0                      
system.cpu.fetch2.vec_instructions                  0                      
system.cpu.fetch2.load_instructions             86401                      
system.cpu.fetch2.store_instructions            50350                      
system.cpu.dcache.tags.pwrStateResidencyTicks::UNDEFINED    314802000                      
system.cpu.dcache.tags.replacements                 0                      
system.cpu.dcache.tags.tagsinuse           376.307232                      
system.cpu.dcache.tags.total_refs              112777                      
system.cpu.dcache.tags.sampled_refs               495                      
system.cpu.dcache.tags.avg_refs            227.832323                      
system.cpu.dcache.tags.warmup_cycle            180500                      
system.cpu.dcache.tags.occ_blocks::cpu.data   376.307232                      
system.cpu.dcache.tags.occ_percent::cpu.data     0.091872                      
system.cpu.dcache.tags.occ_percent::total     0.091872                      
system.cpu.dcache.tags.occ_task_id_blocks::1024          495                      
system.cpu.dcache.tags.age_task_id_blocks_1024::0           14                      
system.cpu.dcache.tags.age_task_id_blocks_1024::1           22                      
system.cpu.dcache.tags.age_task_id_blocks_1024::2          459                      
system.cpu.dcache.tags.occ_task_id_percent::1024     0.120850                      
system.cpu.dcache.tags.tag_accesses            227373                      
system.cpu.dcache.tags.data_accesses           227373                      
system.cpu.dcache.pwrStateResidencyTicks::UNDEFINED    314802000                      
system.cpu.dcache.ReadReq_hits::cpu.data        70591                      
system.cpu.dcache.ReadReq_hits::total           70591                      
system.cpu.dcache.WriteReq_hits::cpu.data        40618                      
system.cpu.dcache.WriteReq_hits::total          40618                      
system.cpu.dcache.LoadLockedReq_hits::cpu.data          784                      
system.cpu.dcache.LoadLockedReq_hits::total          784                      
system.cpu.dcache.StoreCondReq_hits::cpu.data          784                      
system.cpu.dcache.StoreCondReq_hits::total          784                      
system.cpu.dcache.demand_hits::cpu.data        111209                      
system.cpu.dcache.demand_hits::total           111209                      
system.cpu.dcache.overall_hits::cpu.data       111209                      
system.cpu.dcache.overall_hits::total          111209                      
system.cpu.dcache.ReadReq_misses::cpu.data          273                      
system.cpu.dcache.ReadReq_misses::total           273                      
system.cpu.dcache.WriteReq_misses::cpu.data          389                      
system.cpu.dcache.WriteReq_misses::total          389                      
system.cpu.dcache.demand_misses::cpu.data          662                      
system.cpu.dcache.demand_misses::total            662                      
system.cpu.dcache.overall_misses::cpu.data          662                      
system.cpu.dcache.overall_misses::total           662                      
system.cpu.dcache.ReadReq_miss_latency::cpu.data     25311000                      
system.cpu.dcache.ReadReq_miss_latency::total     25311000                      
system.cpu.dcache.WriteReq_miss_latency::cpu.data     32163000                      
system.cpu.dcache.WriteReq_miss_latency::total     32163000                      
system.cpu.dcache.demand_miss_latency::cpu.data     57474000                      
system.cpu.dcache.demand_miss_latency::total     57474000                      
system.cpu.dcache.overall_miss_latency::cpu.data     57474000                      
system.cpu.dcache.overall_miss_latency::total     57474000                      
system.cpu.dcache.ReadReq_accesses::cpu.data        70864                      
system.cpu.dcache.ReadReq_accesses::total        70864                      
system.cpu.dcache.WriteReq_accesses::cpu.data        41007                      
system.cpu.dcache.WriteReq_accesses::total        41007                      
system.cpu.dcache.LoadLockedReq_accesses::cpu.data          784                      
system.cpu.dcache.LoadLockedReq_accesses::total          784                      
system.cpu.dcache.StoreCondReq_accesses::cpu.data          784                      
system.cpu.dcache.StoreCondReq_accesses::total          784                      
system.cpu.dcache.demand_accesses::cpu.data       111871                      
system.cpu.dcache.demand_accesses::total       111871                      
system.cpu.dcache.overall_accesses::cpu.data       111871                      
system.cpu.dcache.overall_accesses::total       111871                      
system.cpu.dcache.ReadReq_miss_rate::cpu.data     0.003852                      
system.cpu.dcache.ReadReq_miss_rate::total     0.003852                      
system.cpu.dcache.WriteReq_miss_rate::cpu.data     0.009486                      
system.cpu.dcache.WriteReq_miss_rate::total     0.009486                      
system.cpu.dcache.demand_miss_rate::cpu.data     0.005918                      
system.cpu.dcache.demand_miss_rate::total     0.005918                      
system.cpu.dcache.overall_miss_rate::cpu.data     0.005918                      
system.cpu.dcache.overall_miss_rate::total     0.005918                      
system.cpu.dcache.ReadReq_avg_miss_latency::cpu.data 92714.285714                      
system.cpu.dcache.ReadReq_avg_miss_latency::total 92714.285714                      
system.cpu.dcache.WriteReq_avg_miss_latency::cpu.data 82681.233933                      
system.cpu.dcache.WriteReq_avg_miss_latency::total 82681.233933                      
system.cpu.dcache.demand_avg_miss_latency::cpu.data 86818.731118                      
system.cpu.dcache.demand_avg_miss_latency::total 86818.731118                      
system.cpu.dcache.overall_avg_miss_latency::cpu.data 86818.731118                      
system.cpu.dcache.overall_avg_miss_latency::total 86818.731118                      
system.cpu.dcache.blocked_cycles::no_mshrs            0                      
system.cpu.dcache.blocked_cycles::no_targets            0                      
system.cpu.dcache.blocked::no_mshrs                 0                      
system.cpu.dcache.blocked::no_targets               0                      
system.cpu.dcache.avg_blocked_cycles::no_mshrs          nan                      
system.cpu.dcache.avg_blocked_cycles::no_targets          nan                      
system.cpu.dcache.ReadReq_mshr_hits::cpu.data            2                      
system.cpu.dcache.ReadReq_mshr_hits::total            2                      
system.cpu.dcache.WriteReq_mshr_hits::cpu.data          165                      
system.cpu.dcache.WriteReq_mshr_hits::total          165                      
system.cpu.dcache.demand_mshr_hits::cpu.data          167                      
system.cpu.dcache.demand_mshr_hits::total          167                      
system.cpu.dcache.overall_mshr_hits::cpu.data          167                      
system.cpu.dcache.overall_mshr_hits::total          167                      
system.cpu.dcache.ReadReq_mshr_misses::cpu.data          271                      
system.cpu.dcache.ReadReq_mshr_misses::total          271                      
system.cpu.dcache.WriteReq_mshr_misses::cpu.data          224                      
system.cpu.dcache.WriteReq_mshr_misses::total          224                      
system.cpu.dcache.demand_mshr_misses::cpu.data          495                      
system.cpu.dcache.demand_mshr_misses::total          495                      
system.cpu.dcache.overall_mshr_misses::cpu.data          495                      
system.cpu.dcache.overall_mshr_misses::total          495                      
system.cpu.dcache.ReadReq_mshr_miss_latency::cpu.data     24879000                      
system.cpu.dcache.ReadReq_mshr_miss_latency::total     24879000                      
system.cpu.dcache.WriteReq_mshr_miss_latency::cpu.data     18963000                      
system.cpu.dcache.WriteReq_mshr_miss_latency::total     18963000                      
system.cpu.dcache.demand_mshr_miss_latency::cpu.data     43842000                      
system.cpu.dcache.demand_mshr_miss_latency::total     43842000                      
system.cpu.dcache.overall_mshr_miss_latency::cpu.data     43842000                      
system.cpu.dcache.overall_mshr_miss_latency::total     43842000                      
system.cpu.dcache.ReadReq_mshr_miss_rate::cpu.data     0.003824                      
system.cpu.dcache.ReadReq_mshr_miss_rate::total     0.003824                      
system.cpu.dcache.WriteReq_mshr_miss_rate::cpu.data     0.005462                      
system.cpu.dcache.WriteReq_mshr_miss_rate::total     0.005462                      
system.cpu.dcache.demand_mshr_miss_rate::cpu.data     0.004425                      
system.cpu.dcache.demand_mshr_miss_rate::total     0.004425                      
system.cpu.dcache.overall_mshr_miss_rate::cpu.data     0.004425                      
system.cpu.dcache.overall_mshr_miss_rate::total     0.004425                      
system.cpu.dcache.ReadReq_avg_mshr_miss_latency::cpu.data 91804.428044                      
system.cpu.dcache.ReadReq_avg_mshr_miss_latency::total 91804.428044                      
system.cpu.dcache.WriteReq_avg_mshr_miss_latency::cpu.data 84656.250000                      
system.cpu.dcache.WriteReq_avg_mshr_miss_latency::total 84656.250000                      
system.cpu.dcache.demand_avg_mshr_miss_latency::cpu.data 88569.696970                      
system.cpu.dcache.demand_avg_mshr_miss_latency::total 88569.696970                      
system.cpu.dcache.overall_avg_mshr_miss_latency::cpu.data 88569.696970                      
system.cpu.dcache.overall_avg_mshr_miss_latency::total 88569.696970                      
system.cpu.icache.tags.pwrStateResidencyTicks::UNDEFINED    314802000                      
system.cpu.icache.tags.replacements               100                      
system.cpu.icache.tags.tagsinuse           730.427947                      
system.cpu.icache.tags.total_refs              102783                      
system.cpu.icache.tags.sampled_refs              1254                      
system.cpu.icache.tags.avg_refs             81.964115                      
system.cpu.icache.tags.warmup_cycle             87500                      
system.cpu.icache.tags.occ_blocks::cpu.inst   730.427947                      
system.cpu.icache.tags.occ_percent::cpu.inst     0.356654                      
system.cpu.icache.tags.occ_percent::total     0.356654                      
system.cpu.icache.tags.occ_task_id_blocks::1024         1154                      
system.cpu.icache.tags.age_task_id_blocks_1024::0           52                      
system.cpu.icache.tags.age_task_id_blocks_1024::1          205                      
system.cpu.icache.tags.age_task_id_blocks_1024::2          897                      
system.cpu.icache.tags.occ_task_id_percent::1024     0.563477                      
system.cpu.icache.tags.tag_accesses            209330                      
system.cpu.icache.tags.data_accesses           209330                      
system.cpu.icache.pwrStateResidencyTicks::UNDEFINED    314802000                      
system.cpu.icache.ReadReq_hits::cpu.inst       102783                      
system.cpu.icache.ReadReq_hits::total          102783                      
system.cpu.icache.demand_hits::cpu.inst        102783                      
system.cpu.icache.demand_hits::total           102783                      
system.cpu.icache.overall_hits::cpu.inst       102783                      
system.cpu.icache.overall_hits::total          102783                      
system.cpu.icache.ReadReq_misses::cpu.inst         1255                      
system.cpu.icache.ReadReq_misses::total          1255                      
system.cpu.icache.demand_misses::cpu.inst         1255                      
system.cpu.icache.demand_misses::total           1255                      
system.cpu.icache.overall_misses::cpu.inst         1255                      
system.cpu.icache.overall_misses::total          1255                      
system.cpu.icache.ReadReq_miss_latency::cpu.inst    107853500                      
system.cpu.icache.ReadReq_miss_latency::total    107853500                      
system.cpu.icache.demand_miss_latency::cpu.inst    107853500                      
system.cpu.icache.demand_miss_latency::total    107853500                      
system.cpu.icache.overall_miss_latency::cpu.inst    107853500                      
system.cpu.icache.overall_miss_latency::total    107853500                      
system.cpu.icache.ReadReq_accesses::cpu.inst       104038                      
system.cpu.icache.ReadReq_accesses::total       104038                      
system.cpu.icache.demand_accesses::cpu.inst       104038                      
system.cpu.icache.demand_accesses::total       104038                      
system.cpu.icache.overall_accesses::cpu.inst       104038                      
system.cpu.icache.overall_accesses::total       104038                      
system.cpu.icache.ReadReq_miss_rate::cpu.inst     0.012063                      
system.cpu.icache.ReadReq_miss_rate::total     0.012063                      
system.cpu.icache.demand_miss_rate::cpu.inst     0.012063                      
system.cpu.icache.demand_miss_rate::total     0.012063                      
system.cpu.icache.overall_miss_rate::cpu.inst     0.012063                      
system.cpu.icache.overall_miss_rate::total     0.012063                      
system.cpu.icache.ReadReq_avg_miss_latency::cpu.inst 85939.043825                      
system.cpu.icache.ReadReq_avg_miss_latency::total 85939.043825                      
system.cpu.icache.demand_avg_miss_latency::cpu.inst 85939.043825                      
system.cpu.icache.demand_avg_miss_latency::total 85939.043825                      
system.cpu.icache.overall_avg_miss_latency::cpu.inst 85939.043825                      
system.cpu.icache.overall_avg_miss_latency::total 85939.043825                      
system.cpu.icache.blocked_cycles::no_mshrs            0                      
system.cpu.icache.blocked_cycles::no_targets            0                      
system.cpu.icache.blocked::no_mshrs                 0                      
system.cpu.icache.blocked::no_targets               0                      
system.cpu.icache.avg_blocked_cycles::no_mshrs          nan                      
system.cpu.icache.avg_blocked_cycles::no_targets          nan                      
system.cpu.icache.writebacks::writebacks          100                      
system.cpu.icache.writebacks::total               100                      
system.cpu.icache.ReadReq_mshr_misses::cpu.inst         1255                      
system.cpu.icache.ReadReq_mshr_misses::total         1255                      
system.cpu.icache.demand_mshr_misses::cpu.inst         1255                      
system.cpu.icache.demand_mshr_misses::total         1255                      
system.cpu.icache.overall_mshr_misses::cpu.inst         1255                      
system.cpu.icache.overall_mshr_misses::total         1255                      
system.cpu.icache.ReadReq_mshr_miss_latency::cpu.inst    106599500                      
system.cpu.icache.ReadReq_mshr_miss_latency::total    106599500                      
system.cpu.icache.demand_mshr_miss_latency::cpu.inst    106599500                      
system.cpu.icache.demand_mshr_miss_latency::total    106599500                      
system.cpu.icache.overall_mshr_miss_latency::cpu.inst    106599500                      
system.cpu.icache.overall_mshr_miss_latency::total    106599500                      
system.cpu.icache.ReadReq_mshr_miss_rate::cpu.inst     0.012063                      
system.cpu.icache.ReadReq_mshr_miss_rate::total     0.012063                      
system.cpu.icache.demand_mshr_miss_rate::cpu.inst     0.012063                      
system.cpu.icache.demand_mshr_miss_rate::total     0.012063                      
system.cpu.icache.overall_mshr_miss_rate::cpu.inst     0.012063                      
system.cpu.icache.overall_mshr_miss_rate::total     0.012063                      
system.cpu.icache.ReadReq_avg_mshr_miss_latency::cpu.inst 84939.840637                      
system.cpu.icache.ReadReq_avg_mshr_miss_latency::total 84939.840637                      
system.cpu.icache.demand_avg_mshr_miss_latency::cpu.inst 84939.840637                      
system.cpu.icache.demand_avg_mshr_miss_latency::total 84939.840637                      
system.cpu.icache.overall_avg_mshr_miss_latency::cpu.inst 84939.840637                      
system.cpu.icache.overall_avg_mshr_miss_latency::total 84939.840637                      
system.cpu.l2cache.tags.pwrStateResidencyTicks::UNDEFINED    314802000                      
system.cpu.l2cache.tags.replacements                0                      
system.cpu.l2cache.tags.tagsinuse         1151.774905                      
system.cpu.l2cache.tags.total_refs                110                      
system.cpu.l2cache.tags.sampled_refs             1739                      
system.cpu.l2cache.tags.avg_refs             0.063255                      
system.cpu.l2cache.tags.warmup_cycle            77000                      
system.cpu.l2cache.tags.occ_blocks::cpu.inst   777.003909                      
system.cpu.l2cache.tags.occ_blocks::cpu.data   374.770996                      
system.cpu.l2cache.tags.occ_percent::cpu.inst     0.023712                      
system.cpu.l2cache.tags.occ_percent::cpu.data     0.011437                      
system.cpu.l2cache.tags.occ_percent::total     0.035149                      
system.cpu.l2cache.tags.occ_task_id_blocks::1024         1739                      
system.cpu.l2cache.tags.age_task_id_blocks_1024::0           65                      
system.cpu.l2cache.tags.age_task_id_blocks_1024::1          224                      
system.cpu.l2cache.tags.age_task_id_blocks_1024::2         1450                      
system.cpu.l2cache.tags.occ_task_id_percent::1024     0.053070                      
system.cpu.l2cache.tags.tag_accesses            16539                      
system.cpu.l2cache.tags.data_accesses           16539                      
system.cpu.l2cache.pwrStateResidencyTicks::UNDEFINED    314802000                      
system.cpu.l2cache.WritebackClean_hits::writebacks          100                      
system.cpu.l2cache.WritebackClean_hits::total          100                      
system.cpu.l2cache.ReadCleanReq_hits::cpu.inst            7                      
system.cpu.l2cache.ReadCleanReq_hits::total            7                      
system.cpu.l2cache.ReadSharedReq_hits::cpu.data            3                      
system.cpu.l2cache.ReadSharedReq_hits::total            3                      
system.cpu.l2cache.demand_hits::cpu.inst            7                      
system.cpu.l2cache.demand_hits::cpu.data            3                      
system.cpu.l2cache.demand_hits::total              10                      
system.cpu.l2cache.overall_hits::cpu.inst            7                      
system.cpu.l2cache.overall_hits::cpu.data            3                      
system.cpu.l2cache.overall_hits::total             10                      
system.cpu.l2cache.ReadExReq_misses::cpu.data          224                      
system.cpu.l2cache.ReadExReq_misses::total          224                      
system.cpu.l2cache.ReadCleanReq_misses::cpu.inst         1248                      
system.cpu.l2cache.ReadCleanReq_misses::total         1248                      
system.cpu.l2cache.ReadSharedReq_misses::cpu.data          268                      
system.cpu.l2cache.ReadSharedReq_misses::total          268                      
system.cpu.l2cache.demand_misses::cpu.inst         1248                      
system.cpu.l2cache.demand_misses::cpu.data          492                      
system.cpu.l2cache.demand_misses::total          1740                      
system.cpu.l2cache.overall_misses::cpu.inst         1248                      
system.cpu.l2cache.overall_misses::cpu.data          492                      
system.cpu.l2cache.overall_misses::total         1740                      
system.cpu.l2cache.ReadExReq_miss_latency::cpu.data     18626500                      
system.cpu.l2cache.ReadExReq_miss_latency::total     18626500                      
system.cpu.l2cache.ReadCleanReq_miss_latency::cpu.inst    104645000                      
system.cpu.l2cache.ReadCleanReq_miss_latency::total    104645000                      
system.cpu.l2cache.ReadSharedReq_miss_latency::cpu.data     24433500                      
system.cpu.l2cache.ReadSharedReq_miss_latency::total     24433500                      
system.cpu.l2cache.demand_miss_latency::cpu.inst    104645000                      
system.cpu.l2cache.demand_miss_latency::cpu.data     43060000                      
system.cpu.l2cache.demand_miss_latency::total    147705000                      
system.cpu.l2cache.overall_miss_latency::cpu.inst    104645000                      
system.cpu.l2cache.overall_miss_latency::cpu.data     43060000                      
system.cpu.l2cache.overall_miss_latency::total    147705000                      
system.cpu.l2cache.WritebackClean_accesses::writebacks          100                      
system.cpu.l2cache.WritebackClean_accesses::total          100                      
system.cpu.l2cache.ReadExReq_accesses::cpu.data          224                      
system.cpu.l2cache.ReadExReq_accesses::total          224                      
system.cpu.l2cache.ReadCleanReq_accesses::cpu.inst         1255                      
system.cpu.l2cache.ReadCleanReq_accesses::total         1255                      
system.cpu.l2cache.ReadSharedReq_accesses::cpu.data          271                      
system.cpu.l2cache.ReadSharedReq_accesses::total          271                      
system.cpu.l2cache.demand_accesses::cpu.inst         1255                      
system.cpu.l2cache.demand_accesses::cpu.data          495                      
system.cpu.l2cache.demand_accesses::total         1750                      
system.cpu.l2cache.overall_accesses::cpu.inst         1255                      
system.cpu.l2cache.overall_accesses::cpu.data          495                      
system.cpu.l2cache.overall_accesses::total         1750                      
system.cpu.l2cache.ReadExReq_miss_rate::cpu.data            1                      
system.cpu.l2cache.ReadExReq_miss_rate::total            1                      
system.cpu.l2cache.ReadCleanReq_miss_rate::cpu.inst     0.994422                      
system.cpu.l2cache.ReadCleanReq_miss_rate::total     0.994422                      
system.cpu.l2cache.ReadSharedReq_miss_rate::cpu.data     0.988930                      
system.cpu.l2cache.ReadSharedReq_miss_rate::total     0.988930                      
system.cpu.l2cache.demand_miss_rate::cpu.inst     0.994422                      
system.cpu.l2cache.demand_miss_rate::cpu.data     0.993939                      
system.cpu.l2cache.demand_miss_rate::total     0.994286                      
system.cpu.l2cache.overall_miss_rate::cpu.inst     0.994422                      
system.cpu.l2cache.overall_miss_rate::cpu.data     0.993939                      
system.cpu.l2cache.overall_miss_rate::total     0.994286                      
system.cpu.l2cache.ReadExReq_avg_miss_latency::cpu.data 83154.017857                      
system.cpu.l2cache.ReadExReq_avg_miss_latency::total 83154.017857                      
system.cpu.l2cache.ReadCleanReq_avg_miss_latency::cpu.inst 83850.160256                      
system.cpu.l2cache.ReadCleanReq_avg_miss_latency::total 83850.160256                      
system.cpu.l2cache.ReadSharedReq_avg_miss_latency::cpu.data 91169.776119                      
system.cpu.l2cache.ReadSharedReq_avg_miss_latency::total 91169.776119                      
system.cpu.l2cache.demand_avg_miss_latency::cpu.inst 83850.160256                      
system.cpu.l2cache.demand_avg_miss_latency::cpu.data 87520.325203                      
system.cpu.l2cache.demand_avg_miss_latency::total 84887.931034                      
system.cpu.l2cache.overall_avg_miss_latency::cpu.inst 83850.160256                      
system.cpu.l2cache.overall_avg_miss_latency::cpu.data 87520.325203                      
system.cpu.l2cache.overall_avg_miss_latency::total 84887.931034                      
system.cpu.l2cache.blocked_cycles::no_mshrs            0                      
system.cpu.l2cache.blocked_cycles::no_targets            0                      
system.cpu.l2cache.blocked::no_mshrs                0                      
system.cpu.l2cache.blocked::no_targets              0                      
system.cpu.l2cache.avg_blocked_cycles::no_mshrs          nan                      
system.cpu.l2cache.avg_blocked_cycles::no_targets          nan                      
system.cpu.l2cache.ReadExReq_mshr_misses::cpu.data          224                      
system.cpu.l2cache.ReadExReq_mshr_misses::total          224                      
system.cpu.l2cache.ReadCleanReq_mshr_misses::cpu.inst         1248                      
system.cpu.l2cache.ReadCleanReq_mshr_misses::total         1248                      
system.cpu.l2cache.ReadSharedReq_mshr_misses::cpu.data          268                      
system.cpu.l2cache.ReadSharedReq_mshr_misses::total          268                      
system.cpu.l2cache.demand_mshr_misses::cpu.inst         1248                      
system.cpu.l2cache.demand_mshr_misses::cpu.data          492                      
system.cpu.l2cache.demand_mshr_misses::total         1740                      
system.cpu.l2cache.overall_mshr_misses::cpu.inst         1248                      
system.cpu.l2cache.overall_mshr_misses::cpu.data          492                      
system.cpu.l2cache.overall_mshr_misses::total         1740                      
system.cpu.l2cache.ReadExReq_mshr_miss_latency::cpu.data     16386500                      
system.cpu.l2cache.ReadExReq_mshr_miss_latency::total     16386500                      
system.cpu.l2cache.ReadCleanReq_mshr_miss_latency::cpu.inst     92175000                      
system.cpu.l2cache.ReadCleanReq_mshr_miss_latency::total     92175000                      
system.cpu.l2cache.ReadSharedReq_mshr_miss_latency::cpu.data     21753500                      
system.cpu.l2cache.ReadSharedReq_mshr_miss_latency::total     21753500                      
system.cpu.l2cache.demand_mshr_miss_latency::cpu.inst     92175000                      
system.cpu.l2cache.demand_mshr_miss_latency::cpu.data     38140000                      
system.cpu.l2cache.demand_mshr_miss_latency::total    130315000                      
system.cpu.l2cache.overall_mshr_miss_latency::cpu.inst     92175000                      
system.cpu.l2cache.overall_mshr_miss_latency::cpu.data     38140000                      
system.cpu.l2cache.overall_mshr_miss_latency::total    130315000                      
system.cpu.l2cache.ReadExReq_mshr_miss_rate::cpu.data            1                      
system.cpu.l2cache.ReadExReq_mshr_miss_rate::total            1                      
system.cpu.l2cache.ReadCleanReq_mshr_miss_rate::cpu.inst     0.994422                      
system.cpu.l2cache.ReadCleanReq_mshr_miss_rate::total     0.994422                      
system.cpu.l2cache.ReadSharedReq_mshr_miss_rate::cpu.data     0.988930                      
system.cpu.l2cache.ReadSharedReq_mshr_miss_rate::total     0.988930                      
system.cpu.l2cache.demand_mshr_miss_rate::cpu.inst     0.994422                      
system.cpu.l2cache.demand_mshr_miss_rate::cpu.data     0.993939                      
system.cpu.l2cache.demand_mshr_miss_rate::total     0.994286                      
system.cpu.l2cache.overall_mshr_miss_rate::cpu.inst     0.994422                      
system.cpu.l2cache.overall_mshr_miss_rate::cpu.data     0.993939                      
system.cpu.l2cache.overall_mshr_miss_rate::total     0.994286                      
system.cpu.l2cache.ReadExReq_avg_mshr_miss_latency::cpu.data 73154.017857                      
system.cpu.l2cache.ReadExReq_avg_mshr_miss_latency::total 73154.017857                      
system.cpu.l2cache.ReadCleanReq_avg_mshr_miss_latency::cpu.inst 73858.173077                      
system.cpu.l2cache.ReadCleanReq_avg_mshr_miss_latency::total 73858.173077                      
system.cpu.l2cache.ReadSharedReq_avg_mshr_miss_latency::cpu.data 81169.776119                      
system.cpu.l2cache.ReadSharedReq_avg_mshr_miss_latency::total 81169.776119                      
system.cpu.l2cache.demand_avg_mshr_miss_latency::cpu.inst 73858.173077                      
system.cpu.l2cache.demand_avg_mshr_miss_latency::cpu.data 77520.325203                      
system.cpu.l2cache.demand_avg_mshr_miss_latency::total 74893.678161                      
system.cpu.l2cache.overall_avg_mshr_miss_latency::cpu.inst 73858.173077                      
system.cpu.l2cache.overall_avg_mshr_miss_latency::cpu.data 77520.325203                      
system.cpu.l2cache.overall_avg_mshr_miss_latency::total 74893.678161                      
system.cpu.toL2Bus.snoop_filter.tot_requests         1850                      
system.cpu.toL2Bus.snoop_filter.hit_single_requests          103                      
system.cpu.toL2Bus.snoop_filter.hit_multi_requests            0                      
system.cpu.toL2Bus.snoop_filter.tot_snoops            0                      
system.cpu.toL2Bus.snoop_filter.hit_single_snoops            0                      
system.cpu.toL2Bus.snoop_filter.hit_multi_snoops            0                      
system.cpu.toL2Bus.pwrStateResidencyTicks::UNDEFINED    314802000                      
system.cpu.toL2Bus.trans_dist::ReadResp          1525                      
system.cpu.toL2Bus.trans_dist::WritebackClean          100                      
system.cpu.toL2Bus.trans_dist::ReadExReq          224                      
system.cpu.toL2Bus.trans_dist::ReadExResp          224                      
system.cpu.toL2Bus.trans_dist::ReadCleanReq         1255                      
system.cpu.toL2Bus.trans_dist::ReadSharedReq          271                      
system.cpu.toL2Bus.pkt_count_system.cpu.icache.mem_side::system.cpu.l2cache.cpu_side         2609                      
system.cpu.toL2Bus.pkt_count_system.cpu.dcache.mem_side::system.cpu.l2cache.cpu_side          990                      
system.cpu.toL2Bus.pkt_count::total              3599                      
system.cpu.toL2Bus.pkt_size_system.cpu.icache.mem_side::system.cpu.l2cache.cpu_side        86656                      
system.cpu.toL2Bus.pkt_size_system.cpu.dcache.mem_side::system.cpu.l2cache.cpu_side        31680                      
system.cpu.toL2Bus.pkt_size::total             118336                      
system.cpu.toL2Bus.snoops                           0                      
system.cpu.toL2Bus.snoopTraffic                     0                      
system.cpu.toL2Bus.snoop_fanout::samples         1750                      
system.cpu.toL2Bus.snoop_fanout::mean        0.001714                      
system.cpu.toL2Bus.snoop_fanout::stdev       0.041380                      
system.cpu.toL2Bus.snoop_fanout::underflows            0      0.00%      0.00%
system.cpu.toL2Bus.snoop_fanout::0               1747     99.83%     99.83%
system.cpu.toL2Bus.snoop_fanout::1                  3      0.17%    100.00%
system.cpu.toL2Bus.snoop_fanout::2                  0      0.00%    100.00%
system.cpu.toL2Bus.snoop_fanout::overflows            0      0.00%    100.00%
system.cpu.toL2Bus.snoop_fanout::min_value            0                      
system.cpu.toL2Bus.snoop_fanout::max_value            1                      
system.cpu.toL2Bus.snoop_fanout::total           1750                      
system.cpu.toL2Bus.reqLayer0.occupancy        1025000                      
system.cpu.toL2Bus.reqLayer0.utilization          0.3                      
system.cpu.toL2Bus.respLayer0.occupancy       1881000                      
system.cpu.toL2Bus.respLayer0.utilization          0.6                      
system.cpu.toL2Bus.respLayer1.occupancy        742500                      
system.cpu.toL2Bus.respLayer1.utilization          0.2                      
system.membus.snoop_filter.tot_requests          1739                      
system.membus.snoop_filter.hit_single_requests            0                      
system.membus.snoop_filter.hit_multi_requests            0                      
system.membus.snoop_filter.tot_snoops               0                      
system.membus.snoop_filter.hit_single_snoops            0                      
system.membus.snoop_filter.hit_multi_snoops            0                      
system.membus.pwrStateResidencyTicks::UNDEFINED    314802000                      
system.membus.trans_dist::ReadResp               1515                      
system.membus.trans_dist::ReadExReq               224                      
system.membus.trans_dist::ReadExResp              224                      
system.membus.trans_dist::ReadSharedReq          1515                      
system.membus.pkt_count_system.cpu.l2cache.mem_side::system.physmem.port         3478                      
system.membus.pkt_count::total                   3478                      
system.membus.pkt_size_system.cpu.l2cache.mem_side::system.physmem.port       111296                      
system.membus.pkt_size::total                  111296                      
system.membus.snoops                                0                      
system.membus.snoopTraffic                          0                      
system.membus.snoop_fanout::samples              1739                      
system.membus.snoop_fanout::mean                    0                      
system.membus.snoop_fanout::stdev                   0                      
system.membus.snoop_fanout::underflows              0      0.00%      0.00%
system.membus.snoop_fanout::0                    1739    100.00%    100.00%
system.membus.snoop_fanout::1                       0      0.00%    100.00%
system.membus.snoop_fanout::overflows               0      0.00%    100.00%
system.membus.snoop_fanout::min_value               0                      
system.membus.snoop_fanout::max_value               0                      
system.membus.snoop_fanout::total                1739                      
system.membus.reqLayer0.occupancy             2031500                      
system.membus.reqLayer0.utilization               0.6                      
system.membus.respLayer1.occupancy            9273750                      
system.membus.respLayer1.utilization              2.9                      

---------- End Simulation Statistics   ----------
